2C_CG2012	P10000014
  -OEChem-05122015073D

 37 39  0     1  0  0  0  0  0999 V2000
   61.4478  162.6464   -6.5077 C   0  0  0  0  0  0  0  0  0  0  0  0
   60.8307  163.2930   -5.4230 C   0  0  0  0  0  0  0  0  0  0  0  0
   61.0599  161.3594   -6.8929 C   0  0  0  0  0  0  0  0  0  0  0  0
   59.6970  158.4209   -7.2468 C   0  0  0  0  0  0  0  0  0  0  0  0
   58.9431  157.2467   -7.1582 C   0  0  0  0  0  0  0  0  0  0  0  0
   59.8132  162.6659   -4.7016 C   0  0  0  0  0  0  0  0  0  0  0  0
   57.7016  158.1138   -5.2501 C   0  0  0  0  0  0  0  0  0  0  0  0
   60.0507  160.7370   -6.1773 C   0  0  0  0  0  0  0  0  0  0  0  0
   59.4454  159.4320   -6.3346 C   0  0  0  0  0  0  0  0  0  0  0  0
   57.9554  157.0948   -6.1699 C   0  0  0  0  0  0  0  0  0  0  0  0
   59.4340  161.3924   -5.0879 C   0  0  0  0  0  0  0  0  0  0  0  0
   58.4512  159.2733   -5.3432 C   0  0  0  0  0  0  0  0  0  0  0  0
   57.1890  155.8600   -6.1055 C   0  0  0  0  0  0  0  0  0  0  0  0
   53.7392  155.9814   -3.5429 C   0  0  0  0  0  0  0  0  0  0  0  0
   58.3678  160.5100   -4.4731 C   0  0  0  0  0  0  0  0  0  0  0  0
   55.0768  154.9307   -5.5007 C   0  0  0  0  0  0  0  0  0  0  0  0
   53.7174  155.3365   -4.9396 C   0  0  2  0  0  0  0  0  0  0  0  0
   53.0347  156.1875   -5.9657 N   0  3  0  0  0  0  0  0  0  0  0  0
   54.4275  157.0325   -3.4220 O   0  5  0  0  0  0  0  0  0  0  0  0
   57.6181  154.7512   -6.4504 O   0  0  0  0  0  0  0  0  0  0  0  0
   53.0705  155.3615   -2.6658 O   0  0  0  0  0  0  0  0  0  0  0  0
   55.9305  156.0744   -5.6137 O   0  0  0  0  0  0  0  0  0  0  0  0
   62.2373  163.1557   -7.0544 H   0  0  0  0  0  0  0  0  0  0  0  0
   61.1508  164.2934   -5.1441 H   0  0  0  0  0  0  0  0  0  0  0  0
   61.5457  160.8734   -7.7325 H   0  0  0  0  0  0  0  0  0  0  0  0
   60.4561  158.5242   -8.0149 H   0  0  0  0  0  0  0  0  0  0  0  0
   59.1317  156.4450   -7.8689 H   0  0  0  0  0  0  0  0  0  0  0  0
   59.3383  163.1660   -3.8646 H   0  0  0  0  0  0  0  0  0  0  0  0
   56.9417  158.0060   -4.4828 H   0  0  0  0  0  0  0  0  0  0  0  0
   58.6141  160.2706   -3.4345 H   0  0  0  0  0  0  0  0  0  0  0  0
   57.3824  160.9772   -4.5575 H   0  0  0  0  0  0  0  0  0  0  0  0
   54.9703  154.4817   -6.4943 H   0  0  0  0  0  0  0  0  0  0  0  0
   55.5660  154.1995   -4.8485 H   0  0  0  0  0  0  0  0  0  0  0  0
   53.0946  154.4373   -4.8576 H   0  0  0  0  0  0  0  0  0  0  0  0
   53.0351  157.1645   -5.6707 H   0  0  0  0  0  0  0  0  0  0  0  0
   52.0682  155.8830   -6.0892 H   0  0  0  0  0  0  0  0  0  0  0  0
   53.5180  156.1154   -6.8618 H   0  0  0  0  0  0  0  0  0  0  0  0
  1  2  1  0  0  0  0
  1  3  2  0  0  0  0
  2  6  2  0  0  0  0
  3  8  1  0  0  0  0
  4  5  1  0  0  0  0
  4  9  2  0  0  0  0
  5 10  2  0  0  0  0
  6 11  1  0  0  0  0
  7 10  1  0  0  0  0
  7 12  2  0  0  0  0
  8  9  1  0  0  0  0
  8 11  2  0  0  0  0
  9 12  1  0  0  0  0
 10 13  1  0  0  0  0
 11 15  1  0  0  0  0
 12 15  1  0  0  0  0
 13 20  2  0  0  0  0
 13 22  1  0  0  0  0
 14 17  1  0  0  0  0
 14 19  1  0  0  0  0
 14 21  2  0  0  0  0
 16 17  1  0  0  0  0
 16 22  1  0  0  0  0
 17 18  1  0  0  0  0
  1 23  1  0  0  0  0
  2 24  1  0  0  0  0
  3 25  1  0  0  0  0
  4 26  1  0  0  0  0
  5 27  1  0  0  0  0
  6 28  1  0  0  0  0
  7 29  1  0  0  0  0
 15 30  1  0  0  0  0
 15 31  1  0  0  0  0
 16 32  1  0  0  0  0
 16 33  1  0  0  0  0
 17 34  1  0  0  0  0
 18 35  1  0  0  0  0
 18 36  1  0  0  0  0
 18 37  1  0  0  0  0
M  CHG  2  18   1  19  -1
M  END
> <FRED Chemgauss4 score>
-13.422909

$$$$
5C_CG2012	P10000008
  -OEChem-05122015073D

 36 37  0     1  0  0  0  0  0999 V2000
   62.8433  158.5485   -8.3741 C   0  0  0  0  0  0  0  0  0  0  0  0
   61.8135  159.1935   -7.6892 C   0  0  0  0  0  0  0  0  0  0  0  0
   62.7350  157.1919   -8.6799 C   0  0  0  0  0  0  0  0  0  0  0  0
   60.6754  158.4819   -7.3100 C   0  0  0  0  0  0  0  0  0  0  0  0
   61.5968  156.4802   -8.3006 C   0  0  0  0  0  0  0  0  0  0  0  0
   59.4781  155.0255   -6.9359 C   0  0  0  0  0  0  0  0  0  0  0  0
   58.1560  157.0383   -7.1297 C   0  0  0  0  0  0  0  0  0  0  0  0
   58.3398  154.3142   -6.5566 C   0  0  0  0  0  0  0  0  0  0  0  0
   57.0176  156.3270   -6.7505 C   0  0  0  0  0  0  0  0  0  0  0  0
   60.5670  157.1252   -7.6157 C   0  0  0  0  0  0  0  0  0  0  0  0
   59.3863  156.3875   -7.2224 C   0  0  0  0  0  0  0  0  0  0  0  0
   57.1095  154.9649   -6.4639 C   0  0  0  0  0  0  0  0  0  0  0  0
   55.8978  154.2078   -6.0602 C   0  0  0  0  0  0  0  0  0  0  0  0
   53.5442  156.0783   -3.0048 C   0  0  0  0  0  0  0  0  0  0  0  0
   53.8145  154.4029   -4.9659 C   0  0  0  0  0  0  0  0  0  0  0  0
   52.9299  155.4212   -4.2530 C   0  0  2  0  0  0  0  0  0  0  0  0
   52.4679  156.4178   -5.2710 N   0  3  0  0  0  0  0  0  0  0  0  0
   54.6260  156.7054   -3.1771 O   0  5  0  0  0  0  0  0  0  0  0  0
   55.7403  153.0201   -6.2967 O   0  0  0  0  0  0  0  0  0  0  0  0
   52.8919  155.8929   -1.9367 O   0  0  0  0  0  0  0  0  0  0  0  0
   55.0197  155.0168   -5.4060 O   0  0  0  0  0  0  0  0  0  0  0  0
   63.7287  159.1032   -8.6708 H   0  0  0  0  0  0  0  0  0  0  0  0
   61.8970  160.2502   -7.4526 H   0  0  0  0  0  0  0  0  0  0  0  0
   63.5358  156.6893   -9.2144 H   0  0  0  0  0  0  0  0  0  0  0  0
   59.8811  158.9990   -6.7768 H   0  0  0  0  0  0  0  0  0  0  0  0
   61.5261  155.4233   -8.5464 H   0  0  0  0  0  0  0  0  0  0  0  0
   60.4300  154.5041   -7.0036 H   0  0  0  0  0  0  0  0  0  0  0  0
   58.0682  158.0996   -7.3498 H   0  0  0  0  0  0  0  0  0  0  0  0
   58.4227  153.2531   -6.3355 H   0  0  0  0  0  0  0  0  0  0  0  0
   56.0639  156.8440   -6.6814 H   0  0  0  0  0  0  0  0  0  0  0  0
   53.3022  153.9855   -5.8398 H   0  0  0  0  0  0  0  0  0  0  0  0
   54.0742  153.5753   -4.2974 H   0  0  0  0  0  0  0  0  0  0  0  0
   52.0168  154.9128   -3.9196 H   0  0  0  0  0  0  0  0  0  0  0  0
   53.2584  156.9658   -5.6122 H   0  0  0  0  0  0  0  0  0  0  0  0
   51.7837  157.0524   -4.8573 H   0  0  0  0  0  0  0  0  0  0  0  0
   52.0350  155.9394   -6.0618 H   0  0  0  0  0  0  0  0  0  0  0  0
  1  2  1  0  0  0  0
  1  3  2  0  0  0  0
  2  4  2  0  0  0  0
  3  5  1  0  0  0  0
  4 10  1  0  0  0  0
  5 10  2  0  0  0  0
  6  8  2  0  0  0  0
  6 11  1  0  0  0  0
  7  9  1  0  0  0  0
  7 11  2  0  0  0  0
  8 12  1  0  0  0  0
  9 12  2  0  0  0  0
 10 11  1  0  0  0  0
 12 13  1  0  0  0  0
 13 19  2  0  0  0  0
 13 21  1  0  0  0  0
 14 16  1  0  0  0  0
 14 18  1  0  0  0  0
 14 20  2  0  0  0  0
 15 16  1  0  0  0  0
 15 21  1  0  0  0  0
 16 17  1  0  0  0  0
  1 22  1  0  0  0  0
  2 23  1  0  0  0  0
  3 24  1  0  0  0  0
  4 25  1  0  0  0  0
  5 26  1  0  0  0  0
  6 27  1  0  0  0  0
  7 28  1  0  0  0  0
  8 29  1  0  0  0  0
  9 30  1  0  0  0  0
 15 31  1  0  0  0  0
 15 32  1  0  0  0  0
 16 33  1  0  0  0  0
 17 34  1  0  0  0  0
 17 35  1  0  0  0  0
 17 36  1  0  0  0  0
M  CHG  2  17   1  18  -1
M  END
> <FRED Chemgauss4 score>
-12.373508

$$$$
3C_CG2012	P10000018
  -OEChem-05122015073D

 32 33  0     1  0  0  0  0  0999 V2000
   60.4398  158.1294   -7.9567 C   0  0  0  0  0  0  0  0  0  0  0  0
   59.1866  158.7348   -7.9618 C   0  0  0  0  0  0  0  0  0  0  0  0
   60.5779  156.8133   -7.5149 C   0  0  0  0  0  0  0  0  0  0  0  0
   58.0668  158.0264   -7.5252 C   0  0  0  0  0  0  0  0  0  0  0  0
   59.5823  154.7597   -6.6239 C   0  0  0  0  0  0  0  0  0  0  0  0
   58.4626  154.0513   -6.1871 C   0  0  0  0  0  0  0  0  0  0  0  0
   57.0712  155.9728   -6.6340 C   0  0  0  0  0  0  0  0  0  0  0  0
   59.4617  156.0853   -7.0719 C   0  0  0  0  0  0  0  0  0  0  0  0
   58.1874  156.7009   -7.0770 C   0  0  0  0  0  0  0  0  0  0  0  0
   57.2094  154.6567   -6.1922 C   0  0  0  0  0  0  0  0  0  0  0  0
   56.0433  153.9182   -5.7344 C   0  0  0  0  0  0  0  0  0  0  0  0
   53.5283  156.0159   -2.9489 C   0  0  0  0  0  0  0  0  0  0  0  0
   53.9058  154.1380   -4.6973 C   0  0  0  0  0  0  0  0  0  0  0  0
   52.9675  155.1950   -4.1230 C   0  0  2  0  0  0  0  0  0  0  0  0
   52.4904  156.0483   -5.2577 N   0  3  0  0  0  0  0  0  0  0  0  0
   54.5890  156.6622   -3.1736 O   0  5  0  0  0  0  0  0  0  0  0  0
   55.9121  152.6903   -5.8247 O   0  0  0  0  0  0  0  0  0  0  0  0
   52.8601  155.9285   -1.8781 O   0  0  0  0  0  0  0  0  0  0  0  0
   55.1040  154.7494   -5.1876 O   0  0  0  0  0  0  0  0  0  0  0  0
   61.3113  158.6821   -8.2954 H   0  0  0  0  0  0  0  0  0  0  0  0
   59.0797  159.7593   -8.3064 H   0  0  0  0  0  0  0  0  0  0  0  0
   61.5674  156.3608   -7.5182 H   0  0  0  0  0  0  0  0  0  0  0  0
   57.0970  158.5195   -7.5393 H   0  0  0  0  0  0  0  0  0  0  0  0
   60.5522  154.2667   -6.6122 H   0  0  0  0  0  0  0  0  0  0  0  0
   58.5823  153.0264   -5.8451 H   0  0  0  0  0  0  0  0  0  0  0  0
   56.0861  156.4371   -6.6329 H   0  0  0  0  0  0  0  0  0  0  0  0
   53.4294  153.6024   -5.5258 H   0  0  0  0  0  0  0  0  0  0  0  0
   54.1821  153.4041   -3.9329 H   0  0  0  0  0  0  0  0  0  0  0  0
   52.0672  154.6919   -3.7491 H   0  0  0  0  0  0  0  0  0  0  0  0
   52.7835  157.0159   -5.1189 H   0  0  0  0  0  0  0  0  0  0  0  0
   51.4717  156.0196   -5.3158 H   0  0  0  0  0  0  0  0  0  0  0  0
   52.8786  155.7115   -6.1396 H   0  0  0  0  0  0  0  0  0  0  0  0
  1  2  1  0  0  0  0
  1  3  2  0  0  0  0
  2  4  2  0  0  0  0
  3  8  1  0  0  0  0
  4  9  1  0  0  0  0
  5  6  2  0  0  0  0
  5  8  1  0  0  0  0
  6 10  1  0  0  0  0
  7  9  1  0  0  0  0
  7 10  2  0  0  0  0
  8  9  2  0  0  0  0
 10 11  1  0  0  0  0
 11 17  2  0  0  0  0
 11 19  1  0  0  0  0
 12 14  1  0  0  0  0
 12 16  1  0  0  0  0
 12 18  2  0  0  0  0
 13 14  1  0  0  0  0
 13 19  1  0  0  0  0
 14 15  1  0  0  0  0
  1 20  1  0  0  0  0
  2 21  1  0  0  0  0
  3 22  1  0  0  0  0
  4 23  1  0  0  0  0
  5 24  1  0  0  0  0
  6 25  1  0  0  0  0
  7 26  1  0  0  0  0
 13 27  1  0  0  0  0
 13 28  1  0  0  0  0
 14 29  1  0  0  0  0
 15 30  1  0  0  0  0
 15 31  1  0  0  0  0
 15 32  1  0  0  0  0
M  CHG  2  15   1  16  -1
M  END
> <FRED Chemgauss4 score>
-12.001119

$$$$
GPNA	P10000029
  -OEChem-05122015073D

 32 32  0     1  0  0  0  0  0999 V2000
   58.9224  157.6594   -7.1328 C   0  0  0  0  0  0  0  0  0  0  0  0
   59.4611  155.3302   -7.4818 C   0  0  0  0  0  0  0  0  0  0  0  0
   60.2227  158.0140   -7.4920 C   0  0  0  0  0  0  0  0  0  0  0  0
   60.7614  155.6848   -7.8411 C   0  0  0  0  0  0  0  0  0  0  0  0
   58.5416  156.3175   -7.1276 C   0  0  0  0  0  0  0  0  0  0  0  0
   61.1422  157.0267   -7.8463 C   0  0  0  0  0  0  0  0  0  0  0  0
   56.6772  154.6782   -6.7037 C   0  0  0  0  0  0  0  0  0  0  0  0
   53.3677  155.9200   -3.0018 C   0  0  0  0  0  0  0  0  0  0  0  0
   55.2203  154.7386   -6.2641 C   0  0  0  0  0  0  0  0  0  0  0  0
   55.0498  155.3713   -4.8810 C   0  0  0  0  0  0  0  0  0  0  0  0
   53.5912  155.3550   -4.4134 C   0  0  2  0  0  0  0  0  0  0  0  0
   57.2224  155.9577   -6.7630 N   0  0  0  0  0  0  0  0  0  0  0  0
   62.4658  157.3877   -8.2122 N   0  3  0  0  0  0  0  0  0  0  0  0
   52.8015  156.1155   -5.4341 N   0  3  0  0  0  0  0  0  0  0  0  0
   53.7648  157.1103   -2.8449 O   0  5  0  0  0  0  0  0  0  0  0  0
   62.7878  158.6004   -8.2103 O   0  5  0  0  0  0  0  0  0  0  0  0
   57.2386  153.6169   -6.9544 O   0  0  0  0  0  0  0  0  0  0  0  0
   52.8063  155.1466   -2.1770 O   0  0  0  0  0  0  0  0  0  0  0  0
   63.2774  156.4841   -8.5273 O   0  0  0  0  0  0  0  0  0  0  0  0
   58.2141  158.4371   -6.8586 H   0  0  0  0  0  0  0  0  0  0  0  0
   59.1752  154.2814   -7.4813 H   0  0  0  0  0  0  0  0  0  0  0  0
   60.5064  159.0636   -7.4918 H   0  0  0  0  0  0  0  0  0  0  0  0
   61.4681  154.9053   -8.1151 H   0  0  0  0  0  0  0  0  0  0  0  0
   54.8239  153.7160   -6.2547 H   0  0  0  0  0  0  0  0  0  0  0  0
   54.6651  155.3092   -7.0173 H   0  0  0  0  0  0  0  0  0  0  0  0
   55.4397  156.3974   -4.8959 H   0  0  0  0  0  0  0  0  0  0  0  0
   55.6714  154.8193   -4.1631 H   0  0  0  0  0  0  0  0  0  0  0  0
   53.2050  154.3296   -4.4579 H   0  0  0  0  0  0  0  0  0  0  0  0
   56.5996  156.7238   -6.5152 H   0  0  0  0  0  0  0  0  0  0  0  0
   51.8064  156.0753   -5.2114 H   0  0  0  0  0  0  0  0  0  0  0  0
   52.9463  155.7144   -6.3614 H   0  0  0  0  0  0  0  0  0  0  0  0
   53.0948  157.0929   -5.4501 H   0  0  0  0  0  0  0  0  0  0  0  0
  1  3  1  0  0  0  0
  1  5  2  0  0  0  0
  2  4  2  0  0  0  0
  2  5  1  0  0  0  0
  3  6  2  0  0  0  0
  4  6  1  0  0  0  0
  5 12  1  0  0  0  0
  6 13  1  0  0  0  0
  7  9  1  0  0  0  0
  7 12  1  0  0  0  0
  7 17  2  0  0  0  0
  8 11  1  0  0  0  0
  8 15  1  0  0  0  0
  8 18  2  0  0  0  0
  9 10  1  0  0  0  0
 10 11  1  0  0  0  0
 11 14  1  0  0  0  0
 13 16  1  0  0  0  0
 13 19  2  0  0  0  0
  1 20  1  0  0  0  0
  2 21  1  0  0  0  0
  3 22  1  0  0  0  0
  4 23  1  0  0  0  0
  9 24  1  0  0  0  0
  9 25  1  0  0  0  0
 10 26  1  0  0  0  0
 10 27  1  0  0  0  0
 11 28  1  0  0  0  0
 12 29  1  0  0  0  0
 14 30  1  0  0  0  0
 14 31  1  0  0  0  0
 14 32  1  0  0  0  0
M  CHG  4  13   1  14   1  15  -1  16  -1
M  END
> <FRED Chemgauss4 score>
-11.842127

$$$$
cmpd14b_JGP2019	P10000040
  -OEChem-05122015073D

 38 39  0     1  0  0  0  0  0999 V2000
   59.4649  160.7360   -4.8857 C   0  0  0  0  0  0  0  0  0  0  0  0
   60.2904  160.6226   -7.1535 C   0  0  0  0  0  0  0  0  0  0  0  0
   58.7014  157.9452   -5.1967 C   0  0  0  0  0  0  0  0  0  0  0  0
   58.4286  158.4226   -7.5493 C   0  0  0  0  0  0  0  0  0  0  0  0
   60.1094  161.9608   -4.7123 C   0  0  0  0  0  0  0  0  0  0  0  0
   60.9349  161.8475   -6.9801 C   0  0  0  0  0  0  0  0  0  0  0  0
   58.0573  156.7202   -5.3706 C   0  0  0  0  0  0  0  0  0  0  0  0
   57.7845  157.1976   -7.7232 C   0  0  0  0  0  0  0  0  0  0  0  0
   59.5554  160.0669   -6.1063 C   0  0  0  0  0  0  0  0  0  0  0  0
   58.8870  158.7964   -6.2861 C   0  0  0  0  0  0  0  0  0  0  0  0
   60.8444  162.5166   -5.7595 C   0  0  0  0  0  0  0  0  0  0  0  0
   57.5988  156.3465   -6.6338 C   0  0  0  0  0  0  0  0  0  0  0  0
   54.2240  156.4567   -3.0355 C   0  0  0  0  0  0  0  0  0  0  0  0
   54.5872  155.1546   -5.2321 C   0  0  0  0  0  0  0  0  0  0  0  0
   54.7874  156.4662   -4.4673 C   0  0  1  0  0  0  0  0  0  0  0  0
   55.1519  155.2188   -6.5775 N   0  0  0  0  0  0  0  0  0  0  0  0
   54.2008  157.5701   -5.2925 N   0  3  0  0  0  0  0  0  0  0  0  0
   54.2412  155.3504   -2.4290 O   0  5  0  0  0  0  0  0  0  0  0  0
   53.8025  157.5808   -2.6351 O   0  0  0  0  0  0  0  0  0  0  0  0
   56.9418  154.3981   -8.2408 O   0  0  0  0  0  0  0  0  0  0  0  0
   57.2425  153.9207   -5.7901 O   0  0  0  0  0  0  0  0  0  0  0  0
   61.4633  163.6928   -5.5929 F   0  0  0  0  0  0  0  0  0  0  0  0
   56.7841  154.7932   -6.8541 S   0  0  0  0  0  0  0  0  0  0  0  0
   58.8959  160.3157   -4.0599 H   0  0  0  0  0  0  0  0  0  0  0  0
   60.3704  160.1134   -8.1110 H   0  0  0  0  0  0  0  0  0  0  0  0
   59.0527  158.2225   -4.2058 H   0  0  0  0  0  0  0  0  0  0  0  0
   58.5653  159.0750   -8.4086 H   0  0  0  0  0  0  0  0  0  0  0  0
   60.0392  162.4819   -3.7621 H   0  0  0  0  0  0  0  0  0  0  0  0
   61.5073  162.2809   -7.7950 H   0  0  0  0  0  0  0  0  0  0  0  0
   57.9174  156.0645   -4.5154 H   0  0  0  0  0  0  0  0  0  0  0  0
   57.4308  156.9160   -8.7112 H   0  0  0  0  0  0  0  0  0  0  0  0
   53.5175  154.9298   -5.3151 H   0  0  0  0  0  0  0  0  0  0  0  0
   55.0511  154.3205   -4.6925 H   0  0  0  0  0  0  0  0  0  0  0  0
   55.8591  156.6914   -4.3939 H   0  0  0  0  0  0  0  0  0  0  0  0
   54.4868  155.1262   -7.3604 H   0  0  0  0  0  0  0  0  0  0  0  0
   54.6502  157.6029   -6.2082 H   0  0  0  0  0  0  0  0  0  0  0  0
   54.3383  158.4684   -4.8276 H   0  0  0  0  0  0  0  0  0  0  0  0
   53.2000  157.4186   -5.4236 H   0  0  0  0  0  0  0  0  0  0  0  0
  1  5  1  0  0  0  0
  1  9  2  0  0  0  0
  2  6  2  0  0  0  0
  2  9  1  0  0  0  0
  3  7  2  0  0  0  0
  3 10  1  0  0  0  0
  4  8  1  0  0  0  0
  4 10  2  0  0  0  0
  5 11  2  0  0  0  0
  6 11  1  0  0  0  0
  7 12  1  0  0  0  0
  8 12  2  0  0  0  0
  9 10  1  0  0  0  0
 11 22  1  0  0  0  0
 12 23  1  0  0  0  0
 13 15  1  0  0  0  0
 13 18  1  0  0  0  0
 13 19  2  0  0  0  0
 14 15  1  0  0  0  0
 14 16  1  0  0  0  0
 15 17  1  0  0  0  0
 16 23  1  0  0  0  0
 20 23  2  0  0  0  0
 21 23  2  0  0  0  0
  1 24  1  0  0  0  0
  2 25  1  0  0  0  0
  3 26  1  0  0  0  0
  4 27  1  0  0  0  0
  5 28  1  0  0  0  0
  6 29  1  0  0  0  0
  7 30  1  0  0  0  0
  8 31  1  0  0  0  0
 14 32  1  0  0  0  0
 14 33  1  0  0  0  0
 15 34  1  0  0  0  0
 16 35  1  0  0  0  0
 17 36  1  0  0  0  0
 17 37  1  0  0  0  0
 17 38  1  0  0  0  0
M  CHG  2  17   1  18  -1
M  END
> <FRED Chemgauss4 score>
-11.807217

$$$$
C72199958	P112158429
  -OEChem-05122015073D

 47 48  0     1  0  0  0  0  0999 V2000
   58.6596  161.6861   -2.6037 C   0  0  0  0  0  0  0  0  0  0  0  0
   58.8135  159.5656   -1.4561 C   0  0  0  0  0  0  0  0  0  0  0  0
   57.3322  161.4117   -2.9328 C   0  0  0  0  0  0  0  0  0  0  0  0
   57.4861  159.2912   -1.7853 C   0  0  0  0  0  0  0  0  0  0  0  0
   55.7331  155.5157   -4.6517 C   0  0  0  0  0  0  0  0  0  0  0  0
   57.0593  157.9440   -5.0085 C   0  0  0  0  0  0  0  0  0  0  0  0
   59.4003  160.7631   -1.8654 C   0  0  0  0  0  0  0  0  0  0  0  0
   55.0682  156.7165   -4.4037 C   0  0  0  0  0  0  0  0  0  0  0  0
   55.7313  157.9306   -4.5821 C   0  0  0  0  0  0  0  0  0  0  0  0
   57.0612  155.5290   -5.0781 C   0  0  0  0  0  0  0  0  0  0  0  0
   57.7243  156.7431   -5.2565 C   0  0  0  0  0  0  0  0  0  0  0  0
   56.7455  160.2142   -2.5236 C   0  0  0  0  0  0  0  0  0  0  0  0
   60.8198  161.0558   -1.5139 C   0  0  0  0  0  0  0  0  0  0  0  0
   57.6153  153.8233   -6.6400 C   0  0  0  0  0  0  0  0  0  0  0  0
   59.6258  158.0510   -5.8302 C   0  0  0  0  0  0  0  0  0  0  0  0
   53.3084  155.3642   -3.1864 C   0  0  0  0  0  0  0  0  0  0  0  0
   53.6441  156.6561   -3.9483 C   0  0  2  0  0  0  0  0  0  0  0  0
   55.1044  159.1091   -4.3476 N   0  5  0  0  0  0  0  0  0  0  0  0
   52.6634  156.7818   -5.0814 N   0  3  0  0  0  0  0  0  0  0  0  0
   54.5894  159.0388   -1.8211 O   0  0  0  0  0  0  0  0  0  0  0  0
   54.4339  161.1946   -2.9851 O   0  0  0  0  0  0  0  0  0  0  0  0
   54.1982  155.1729   -2.0919 O   0  0  0  0  0  0  0  0  0  0  0  0
   57.7001  154.3497   -5.3172 O   0  0  0  0  0  0  0  0  0  0  0  0
   59.0213  156.7690   -5.6725 O   0  0  0  0  0  0  0  0  0  0  0  0
   55.0834  159.8716   -2.9336 S   0  0  0  0  0  0  0  0  0  0  0  0
   59.1085  162.6215   -2.9271 H   0  0  0  0  0  0  0  0  0  0  0  0
   59.3830  158.8404   -0.8809 H   0  0  0  0  0  0  0  0  0  0  0  0
   56.7643  162.1375   -3.5089 H   0  0  0  0  0  0  0  0  0  0  0  0
   57.0389  158.3550   -1.4617 H   0  0  0  0  0  0  0  0  0  0  0  0
   55.2197  154.5671   -4.5142 H   0  0  0  0  0  0  0  0  0  0  0  0
   57.5889  158.8842   -5.1519 H   0  0  0  0  0  0  0  0  0  0  0  0
   60.8748  161.5805   -0.5522 H   0  0  0  0  0  0  0  0  0  0  0  0
   61.4107  160.1336   -1.4414 H   0  0  0  0  0  0  0  0  0  0  0  0
   61.2989  161.6806   -2.2790 H   0  0  0  0  0  0  0  0  0  0  0  0
   58.1670  152.8817   -6.6943 H   0  0  0  0  0  0  0  0  0  0  0  0
   58.0331  154.5441   -7.3473 H   0  0  0  0  0  0  0  0  0  0  0  0
   56.5658  153.6427   -6.8841 H   0  0  0  0  0  0  0  0  0  0  0  0
   60.6586  157.9289   -6.1656 H   0  0  0  0  0  0  0  0  0  0  0  0
   59.6017  158.5859   -4.8774 H   0  0  0  0  0  0  0  0  0  0  0  0
   59.0668  158.6180   -6.5784 H   0  0  0  0  0  0  0  0  0  0  0  0
   53.3998  154.4917   -3.8432 H   0  0  0  0  0  0  0  0  0  0  0  0
   52.2862  155.3761   -2.7927 H   0  0  0  0  0  0  0  0  0  0  0  0
   53.4024  157.5171   -3.3049 H   0  0  0  0  0  0  0  0  0  0  0  0
   52.2304  157.7035   -5.0644 H   0  0  0  0  0  0  0  0  0  0  0  0
   51.9381  156.0721   -4.9917 H   0  0  0  0  0  0  0  0  0  0  0  0
   53.1435  156.6562   -5.9709 H   0  0  0  0  0  0  0  0  0  0  0  0
   53.9320  154.3467   -1.6584 H   0  0  0  0  0  0  0  0  0  0  0  0
  1  3  2  0  0  0  0
  1  7  1  0  0  0  0
  2  4  1  0  0  0  0
  2  7  2  0  0  0  0
  3 12  1  0  0  0  0
  4 12  2  0  0  0  0
  5  8  1  0  0  0  0
  5 10  2  0  0  0  0
  6  9  1  0  0  0  0
  6 11  2  0  0  0  0
  7 13  1  0  0  0  0
  8  9  2  0  0  0  0
  8 17  1  0  0  0  0
  9 18  1  0  0  0  0
 10 11  1  0  0  0  0
 10 23  1  0  0  0  0
 11 24  1  0  0  0  0
 12 25  1  0  0  0  0
 14 23  1  0  0  0  0
 15 24  1  0  0  0  0
 16 17  1  0  0  0  0
 16 22  1  0  0  0  0
 17 19  1  0  0  0  0
 18 25  1  0  0  0  0
 20 25  2  0  0  0  0
 21 25  2  0  0  0  0
  1 26  1  0  0  0  0
  2 27  1  0  0  0  0
  3 28  1  0  0  0  0
  4 29  1  0  0  0  0
  5 30  1  0  0  0  0
  6 31  1  0  0  0  0
 13 32  1  0  0  0  0
 13 33  1  0  0  0  0
 13 34  1  0  0  0  0
 14 35  1  0  0  0  0
 14 36  1  0  0  0  0
 14 37  1  0  0  0  0
 15 38  1  0  0  0  0
 15 39  1  0  0  0  0
 15 40  1  0  0  0  0
 16 41  1  0  0  0  0
 16 42  1  0  0  0  0
 17 43  1  0  0  0  0
 19 44  1  0  0  0  0
 19 45  1  0  0  0  0
 19 46  1  0  0  0  0
 22 47  1  0  0  0  0
M  CHG  2  18  -1  19   1
M  END
> <FRED Chemgauss4 score>
-11.288309

$$$$
Schulte-2015	P10000001
  -OEChem-05122015073D

 46 47  0     1  0  0  0  0  0999 V2000
   60.1613  161.4197   -5.8222 C   0  0  0  0  0  0  0  0  0  0  0  0
   60.2175  160.1646   -6.4280 C   0  0  0  0  0  0  0  0  0  0  0  0
   59.1774  161.6919   -4.8717 C   0  0  0  0  0  0  0  0  0  0  0  0
   59.2897  159.1817   -6.0835 C   0  0  0  0  0  0  0  0  0  0  0  0
   58.2495  160.7091   -4.5272 C   0  0  0  0  0  0  0  0  0  0  0  0
   58.3057  159.4539   -5.1330 C   0  0  0  0  0  0  0  0  0  0  0  0
   57.3003  157.1517   -5.3107 C   0  0  0  0  0  0  0  0  0  0  0  0
   53.3986  156.3114   -3.3243 C   0  0  0  0  0  0  0  0  0  0  0  0
   56.0039  160.1445   -1.6106 C   0  0  0  0  0  0  0  0  0  0  0  0
   58.3764  160.5273   -1.4565 C   0  0  0  0  0  0  0  0  0  0  0  0
   56.1034  159.2196   -0.4008 C   0  0  0  0  0  0  0  0  0  0  0  0
   58.4200  159.5926   -0.2511 C   0  0  0  0  0  0  0  0  0  0  0  0
   57.2065  161.0288   -3.5059 C   0  0  0  0  0  0  0  0  0  0  0  0
   56.1445  156.3896   -4.6760 C   0  0  0  0  0  0  0  0  0  0  0  0
   54.8366  156.5512   -5.4542 C   0  0  0  0  0  0  0  0  0  0  0  0
   53.6631  155.8477   -4.7654 C   0  0  2  0  0  0  0  0  0  0  0  0
   57.2749  160.1393   -2.3484 N   0  0  0  0  0  0  0  0  0  0  0  0
   57.3735  158.4435   -4.7973 N   0  0  0  0  0  0  0  0  0  0  0  0
   52.4612  156.0611   -5.6337 N   0  3  0  0  0  0  0  0  0  0  0  0
   53.1736  157.5500   -3.2053 O   0  5  0  0  0  0  0  0  0  0  0  0
   58.0331  156.6417   -6.1518 O   0  0  0  0  0  0  0  0  0  0  0  0
   53.4203  155.4116   -2.4391 O   0  0  0  0  0  0  0  0  0  0  0  0
   57.1762  159.6264    0.4496 O   0  0  0  0  0  0  0  0  0  0  0  0
   60.8832  162.1853   -6.0906 H   0  0  0  0  0  0  0  0  0  0  0  0
   60.9833  159.9528   -7.1687 H   0  0  0  0  0  0  0  0  0  0  0  0
   59.1419  162.6731   -4.4058 H   0  0  0  0  0  0  0  0  0  0  0  0
   59.3443  158.2075   -6.5625 H   0  0  0  0  0  0  0  0  0  0  0  0
   55.1918  159.7981   -2.2559 H   0  0  0  0  0  0  0  0  0  0  0  0
   55.7685  161.1595   -1.2728 H   0  0  0  0  0  0  0  0  0  0  0  0
   58.2379  161.5580   -1.1122 H   0  0  0  0  0  0  0  0  0  0  0  0
   59.3310  160.4653   -1.9865 H   0  0  0  0  0  0  0  0  0  0  0  0
   55.1783  159.2697    0.1825 H   0  0  0  0  0  0  0  0  0  0  0  0
   56.2502  158.1753   -0.7017 H   0  0  0  0  0  0  0  0  0  0  0  0
   58.6458  158.5604   -0.5462 H   0  0  0  0  0  0  0  0  0  0  0  0
   59.2017  159.9161    0.4436 H   0  0  0  0  0  0  0  0  0  0  0  0
   57.3166  162.0583   -3.1406 H   0  0  0  0  0  0  0  0  0  0  0  0
   56.1961  160.9454   -3.9265 H   0  0  0  0  0  0  0  0  0  0  0  0
   56.0137  156.7590   -3.6516 H   0  0  0  0  0  0  0  0  0  0  0  0
   56.4289  155.3326   -4.6202 H   0  0  0  0  0  0  0  0  0  0  0  0
   54.9683  156.1729   -6.4763 H   0  0  0  0  0  0  0  0  0  0  0  0
   54.6159  157.6228   -5.5517 H   0  0  0  0  0  0  0  0  0  0  0  0
   53.8324  154.7643   -4.7715 H   0  0  0  0  0  0  0  0  0  0  0  0
   56.6751  158.6901   -4.0990 H   0  0  0  0  0  0  0  0  0  0  0  0
   51.6609  155.5504   -5.2596 H   0  0  0  0  0  0  0  0  0  0  0  0
   52.6480  155.7295   -6.5808 H   0  0  0  0  0  0  0  0  0  0  0  0
   52.2272  157.0536   -5.6739 H   0  0  0  0  0  0  0  0  0  0  0  0
  1  2  1  0  0  0  0
  1  3  2  0  0  0  0
  2  4  2  0  0  0  0
  3  5  1  0  0  0  0
  4  6  1  0  0  0  0
  5  6  2  0  0  0  0
  5 13  1  0  0  0  0
  6 18  1  0  0  0  0
  7 14  1  0  0  0  0
  7 18  1  0  0  0  0
  7 21  2  0  0  0  0
  8 16  1  0  0  0  0
  8 20  1  0  0  0  0
  8 22  2  0  0  0  0
  9 11  1  0  0  0  0
  9 17  1  0  0  0  0
 10 12  1  0  0  0  0
 10 17  1  0  0  0  0
 11 23  1  0  0  0  0
 12 23  1  0  0  0  0
 13 17  1  0  0  0  0
 14 15  1  0  0  0  0
 15 16  1  0  0  0  0
 16 19  1  0  0  0  0
  1 24  1  0  0  0  0
  2 25  1  0  0  0  0
  3 26  1  0  0  0  0
  4 27  1  0  0  0  0
  9 28  1  0  0  0  0
  9 29  1  0  0  0  0
 10 30  1  0  0  0  0
 10 31  1  0  0  0  0
 11 32  1  0  0  0  0
 11 33  1  0  0  0  0
 12 34  1  0  0  0  0
 12 35  1  0  0  0  0
 13 36  1  0  0  0  0
 13 37  1  0  0  0  0
 14 38  1  0  0  0  0
 14 39  1  0  0  0  0
 15 40  1  0  0  0  0
 15 41  1  0  0  0  0
 16 42  1  0  0  0  0
 18 43  1  0  0  0  0
 19 44  1  0  0  0  0
 19 45  1  0  0  0  0
 19 46  1  0  0  0  0
M  CHG  2  19   1  20  -1
M  END
> <FRED Chemgauss4 score>
-11.257757

$$$$
lig_from_structure
  -OEChem-05122015073D

 42 44  0     1  0  0  0  0  0999 V2000
   61.5422  163.5379   -5.3249 C   0  0  0  0  0  0  0  0  0  0  0  0
   61.4305  163.0115   -6.6118 C   0  0  0  0  0  0  0  0  0  0  0  0
   61.0290  162.8331   -4.2360 C   0  0  0  0  0  0  0  0  0  0  0  0
   60.8055  161.7803   -6.8098 C   0  0  0  0  0  0  0  0  0  0  0  0
   60.4041  161.6019   -4.4341 C   0  0  0  0  0  0  0  0  0  0  0  0
   59.6888  158.8249   -4.9287 C   0  0  0  0  0  0  0  0  0  0  0  0
   58.9754  159.5405   -7.1232 C   0  0  0  0  0  0  0  0  0  0  0  0
   59.0641  157.5937   -5.1270 C   0  0  0  0  0  0  0  0  0  0  0  0
   58.3507  158.3092   -7.3216 C   0  0  0  0  0  0  0  0  0  0  0  0
   60.2923  161.0755   -5.7210 C   0  0  0  0  0  0  0  0  0  0  0  0
   59.6444  159.7984   -5.9268 C   0  0  0  0  0  0  0  0  0  0  0  0
   58.3951  157.3358   -6.3235 C   0  0  0  0  0  0  0  0  0  0  0  0
   57.7301  156.0252   -6.5347 C   0  0  0  0  0  0  0  0  0  0  0  0
   55.0723  155.3687   -4.8943 C   0  0  0  0  0  0  0  0  0  0  0  0
   54.2973  155.0642   -7.1751 C   0  0  0  0  0  0  0  0  0  0  0  0
   55.5585  155.1230   -6.3192 C   0  0  1  0  0  0  0  0  0  0  0  0
   53.5880  155.0409   -4.9551 C   0  0  1  0  0  0  0  0  0  0  0  0
   52.7782  155.7315   -3.8717 C   0  0  0  0  0  0  0  0  0  0  0  0
   53.2210  155.5154   -6.2903 N   0  0  0  0  0  0  0  0  0  0  0  0
   58.3272  154.9601   -6.5140 O   0  0  0  0  0  0  0  0  0  0  0  0
   52.8848  157.1423   -4.0001 O   0  0  0  0  0  0  0  0  0  0  0  0
   53.2450  155.2971   -2.6023 O   0  0  0  0  0  0  0  0  0  0  0  0
   56.3939  156.1878   -6.7470 O   0  0  0  0  0  0  0  0  0  0  0  0
   62.0303  164.4958   -5.1708 H   0  0  0  0  0  0  0  0  0  0  0  0
   61.8314  163.5593   -7.4595 H   0  0  0  0  0  0  0  0  0  0  0  0
   61.1169  163.2417   -3.2336 H   0  0  0  0  0  0  0  0  0  0  0  0
   60.7265  161.3832   -7.8191 H   0  0  0  0  0  0  0  0  0  0  0  0
   60.0094  161.0636   -3.5756 H   0  0  0  0  0  0  0  0  0  0  0  0
   60.2064  159.0109   -3.9906 H   0  0  0  0  0  0  0  0  0  0  0  0
   58.9320  160.2891   -7.9107 H   0  0  0  0  0  0  0  0  0  0  0  0
   59.1049  156.8423   -4.3426 H   0  0  0  0  0  0  0  0  0  0  0  0
   57.8321  158.1188   -8.2578 H   0  0  0  0  0  0  0  0  0  0  0  0
   55.5937  154.7224   -4.1799 H   0  0  0  0  0  0  0  0  0  0  0  0
   55.2512  156.4082   -4.5912 H   0  0  0  0  0  0  0  0  0  0  0  0
   54.3525  155.6825   -8.0763 H   0  0  0  0  0  0  0  0  0  0  0  0
   54.0925  154.0313   -7.4786 H   0  0  0  0  0  0  0  0  0  0  0  0
   56.1229  154.1872   -6.3912 H   0  0  0  0  0  0  0  0  0  0  0  0
   53.4290  153.9586   -4.8949 H   0  0  0  0  0  0  0  0  0  0  0  0
   51.7233  155.4564   -3.9689 H   0  0  0  0  0  0  0  0  0  0  0  0
   53.2070  156.5362   -6.2882 H   0  0  0  0  0  0  0  0  0  0  0  0
   52.3576  157.5542   -3.2951 H   0  0  0  0  0  0  0  0  0  0  0  0
   52.7111  155.7532   -1.9299 H   0  0  0  0  0  0  0  0  0  0  0  0
  1  2  1  0  0  0  0
  1  3  2  0  0  0  0
  2  4  2  0  0  0  0
  3  5  1  0  0  0  0
  4 10  1  0  0  0  0
  5 10  2  0  0  0  0
  6  8  2  0  0  0  0
  6 11  1  0  0  0  0
  7  9  1  0  0  0  0
  7 11  2  0  0  0  0
  8 12  1  0  0  0  0
  9 12  2  0  0  0  0
 10 11  1  0  0  0  0
 12 13  1  0  0  0  0
 13 20  2  0  0  0  0
 13 23  1  0  0  0  0
 14 16  1  0  0  0  0
 14 17  1  0  0  0  0
 15 16  1  0  0  0  0
 15 19  1  0  0  0  0
 16 23  1  0  0  0  0
 17 18  1  0  0  0  0
 17 19  1  0  0  0  0
 18 21  1  0  0  0  0
 18 22  1  0  0  0  0
  1 24  1  0  0  0  0
  2 25  1  0  0  0  0
  3 26  1  0  0  0  0
  4 27  1  0  0  0  0
  5 28  1  0  0  0  0
  6 29  1  0  0  0  0
  7 30  1  0  0  0  0
  8 31  1  0  0  0  0
  9 32  1  0  0  0  0
 14 33  1  0  0  0  0
 14 34  1  0  0  0  0
 15 35  1  0  0  0  0
 15 36  1  0  0  0  0
 16 37  1  0  0  0  0
 17 38  1  0  0  0  0
 18 39  1  0  0  0  0
 19 40  1  0  0  0  0
 21 41  1  0  0  0  0
 22 42  1  0  0  0  0
M  END
> <FRED Chemgauss4 score>
-11.173044

$$$$
BenzylSerine	P10000007
  -OEChem-05122015073D

 27 27  0     1  0  0  0  0  0999 V2000
   59.4827  156.6066   -7.6575 C   0  0  0  0  0  0  0  0  0  0  0  0
   59.7974  155.3484   -7.1442 C   0  0  0  0  0  0  0  0  0  0  0  0
   58.1637  157.0599   -7.6331 C   0  0  0  0  0  0  0  0  0  0  0  0
   58.7931  154.5434   -6.6065 C   0  0  0  0  0  0  0  0  0  0  0  0
   57.1595  156.2549   -7.0954 C   0  0  0  0  0  0  0  0  0  0  0  0
   57.4741  154.9967   -6.5821 C   0  0  0  0  0  0  0  0  0  0  0  0
   53.7592  156.0293   -3.1528 C   0  0  0  0  0  0  0  0  0  0  0  0
   56.3933  154.1312   -6.0040 C   0  0  0  0  0  0  0  0  0  0  0  0
   54.3236  154.1906   -4.8924 C   0  0  0  0  0  0  0  0  0  0  0  0
   53.2672  155.1053   -4.2802 C   0  0  2  0  0  0  0  0  0  0  0  0
   52.6031  155.8491   -5.3978 N   0  3  0  0  0  0  0  0  0  0  0  0
   54.6941  156.8243   -3.4481 O   0  5  0  0  0  0  0  0  0  0  0  0
   53.1723  155.8662   -2.0439 O   0  0  0  0  0  0  0  0  0  0  0  0
   55.3780  154.9607   -5.4565 O   0  0  0  0  0  0  0  0  0  0  0  0
   60.2650  157.2338   -8.0749 H   0  0  0  0  0  0  0  0  0  0  0  0
   60.8245  154.9957   -7.1621 H   0  0  0  0  0  0  0  0  0  0  0  0
   57.9185  158.0399   -8.0317 H   0  0  0  0  0  0  0  0  0  0  0  0
   59.0475  153.5644   -6.2089 H   0  0  0  0  0  0  0  0  0  0  0  0
   56.1346  156.6163   -7.0807 H   0  0  0  0  0  0  0  0  0  0  0  0
   55.9527  153.4882   -6.7736 H   0  0  0  0  0  0  0  0  0  0  0  0
   56.7939  153.4856   -5.2151 H   0  0  0  0  0  0  0  0  0  0  0  0
   53.8901  153.5693   -5.6839 H   0  0  0  0  0  0  0  0  0  0  0  0
   54.7509  153.5254   -4.1346 H   0  0  0  0  0  0  0  0  0  0  0  0
   52.4768  154.4797   -3.8474 H   0  0  0  0  0  0  0  0  0  0  0  0
   53.2653  156.4885   -5.8385 H   0  0  0  0  0  0  0  0  0  0  0  0
   51.8139  156.3894   -5.0411 H   0  0  0  0  0  0  0  0  0  0  0  0
   52.2607  155.1949   -6.1024 H   0  0  0  0  0  0  0  0  0  0  0  0
  1  2  1  0  0  0  0
  1  3  2  0  0  0  0
  2  4  2  0  0  0  0
  3  5  1  0  0  0  0
  4  6  1  0  0  0  0
  5  6  2  0  0  0  0
  6  8  1  0  0  0  0
  7 10  1  0  0  0  0
  7 12  1  0  0  0  0
  7 13  2  0  0  0  0
  8 14  1  0  0  0  0
  9 10  1  0  0  0  0
  9 14  1  0  0  0  0
 10 11  1  0  0  0  0
  1 15  1  0  0  0  0
  2 16  1  0  0  0  0
  3 17  1  0  0  0  0
  4 18  1  0  0  0  0
  5 19  1  0  0  0  0
  8 20  1  0  0  0  0
  8 21  1  0  0  0  0
  9 22  1  0  0  0  0
  9 23  1  0  0  0  0
 10 24  1  0  0  0  0
 11 25  1  0  0  0  0
 11 26  1  0  0  0  0
 11 27  1  0  0  0  0
M  CHG  2  11   1  12  -1
M  END
> <FRED Chemgauss4 score>
-11.060689

$$$$
cmpd16b_JGP2019	P10000012
  -OEChem-05122015073D

 41 43  0     1  0  0  0  0  0999 V2000
   60.5895  162.3026   -3.9294 C   0  0  0  0  0  0  0  0  0  0  0  0
   61.6353  162.2098   -6.1053 C   0  0  0  0  0  0  0  0  0  0  0  0
   59.5637  159.6373   -4.4886 C   0  0  0  0  0  0  0  0  0  0  0  0
   59.5977  160.2613   -6.8224 C   0  0  0  0  0  0  0  0  0  0  0  0
   61.3415  163.4348   -3.6161 C   0  0  0  0  0  0  0  0  0  0  0  0
   62.3874  163.3421   -5.7921 C   0  0  0  0  0  0  0  0  0  0  0  0
   58.8121  158.5049   -4.8023 C   0  0  0  0  0  0  0  0  0  0  0  0
   58.8461  159.1289   -7.1361 C   0  0  0  0  0  0  0  0  0  0  0  0
   60.7365  161.6900   -5.1739 C   0  0  0  0  0  0  0  0  0  0  0  0
   59.9565  160.5155   -5.4987 C   0  0  0  0  0  0  0  0  0  0  0  0
   62.2404  163.9546   -4.5475 C   0  0  0  0  0  0  0  0  0  0  0  0
   58.4533  158.2507   -6.1260 C   0  0  0  0  0  0  0  0  0  0  0  0
   53.0034  155.3237   -3.2488 C   0  0  0  0  0  0  0  0  0  0  0  0
   54.8554  155.9151   -4.7918 C   0  0  0  0  0  0  0  0  0  0  0  0
   53.5618  156.9465   -6.5062 C   0  0  0  0  0  0  0  0  0  0  0  0
   53.4670  155.3141   -4.6851 C   0  0  2  0  0  0  0  0  0  0  0  0
   54.9334  156.3572   -6.2425 C   0  0  1  0  0  0  0  0  0  0  0  0
   52.6413  156.1725   -5.6088 N   0  3  0  0  0  0  0  0  0  0  0  0
   51.7629  155.4884   -3.0838 O   0  5  0  0  0  0  0  0  0  0  0  0
   53.9206  155.1651   -2.3951 O   0  0  0  0  0  0  0  0  0  0  0  0
   57.8024  156.5116   -7.9083 O   0  0  0  0  0  0  0  0  0  0  0  0
   57.7357  155.8491   -5.4669 O   0  0  0  0  0  0  0  0  0  0  0  0
   55.9544  157.3221   -6.4092 O   0  0  0  0  0  0  0  0  0  0  0  0
   62.9626  165.0419   -4.2467 F   0  0  0  0  0  0  0  0  0  0  0  0
   57.5037  156.8167   -6.5227 S   0  0  0  0  0  0  0  0  0  0  0  0
   59.8930  161.9093   -3.1926 H   0  0  0  0  0  0  0  0  0  0  0  0
   61.7612  161.7438   -7.0797 H   0  0  0  0  0  0  0  0  0  0  0  0
   59.8353  159.8220   -3.4520 H   0  0  0  0  0  0  0  0  0  0  0  0
   59.8958  160.9362   -7.6213 H   0  0  0  0  0  0  0  0  0  0  0  0
   61.2274  163.9118   -2.6472 H   0  0  0  0  0  0  0  0  0  0  0  0
   63.0874  163.7474   -6.5167 H   0  0  0  0  0  0  0  0  0  0  0  0
   58.5110  157.8272   -4.0080 H   0  0  0  0  0  0  0  0  0  0  0  0
   58.5714  158.9401   -8.1702 H   0  0  0  0  0  0  0  0  0  0  0  0
   55.0189  156.7404   -4.0992 H   0  0  0  0  0  0  0  0  0  0  0  0
   55.6024  155.1407   -4.6047 H   0  0  0  0  0  0  0  0  0  0  0  0
   53.4612  158.0081   -6.2508 H   0  0  0  0  0  0  0  0  0  0  0  0
   53.2238  156.7599   -7.5336 H   0  0  0  0  0  0  0  0  0  0  0  0
   53.4402  154.2948   -5.0744 H   0  0  0  0  0  0  0  0  0  0  0  0
   55.1541  155.5091   -6.9127 H   0  0  0  0  0  0  0  0  0  0  0  0
   52.0611  156.8232   -5.0621 H   0  0  0  0  0  0  0  0  0  0  0  0
   51.9895  155.5997   -6.1617 H   0  0  0  0  0  0  0  0  0  0  0  0
  1  5  1  0  0  0  0
  1  9  2  0  0  0  0
  2  6  2  0  0  0  0
  2  9  1  0  0  0  0
  3  7  2  0  0  0  0
  3 10  1  0  0  0  0
  4  8  1  0  0  0  0
  4 10  2  0  0  0  0
  5 11  2  0  0  0  0
  6 11  1  0  0  0  0
  7 12  1  0  0  0  0
  8 12  2  0  0  0  0
  9 10  1  0  0  0  0
 11 24  1  0  0  0  0
 12 25  1  0  0  0  0
 13 16  1  0  0  0  0
 13 19  1  0  0  0  0
 13 20  2  0  0  0  0
 14 16  1  0  0  0  0
 14 17  1  0  0  0  0
 15 17  1  0  0  0  0
 15 18  1  0  0  0  0
 16 18  1  0  0  0  0
 17 23  1  0  0  0  0
 21 25  2  0  0  0  0
 22 25  2  0  0  0  0
 23 25  1  0  0  0  0
  1 26  1  0  0  0  0
  2 27  1  0  0  0  0
  3 28  1  0  0  0  0
  4 29  1  0  0  0  0
  5 30  1  0  0  0  0
  6 31  1  0  0  0  0
  7 32  1  0  0  0  0
  8 33  1  0  0  0  0
 14 34  1  0  0  0  0
 14 35  1  0  0  0  0
 15 36  1  0  0  0  0
 15 37  1  0  0  0  0
 16 38  1  0  0  0  0
 17 39  1  0  0  0  0
 18 40  1  0  0  0  0
 18 41  1  0  0  0  0
M  CHG  2  18   1  19  -1
M  END
> <FRED Chemgauss4 score>
-10.854293

$$$$
BenzylCysteine	P10000006
  -OEChem-05122015073D

 27 27  0     1  0  0  0  0  0999 V2000
   60.3441  154.2382   -7.9077 C   0  0  0  0  0  0  0  0  0  0  0  0
   60.0185  155.5308   -7.4968 C   0  0  0  0  0  0  0  0  0  0  0  0
   59.3639  153.2460   -7.9306 C   0  0  0  0  0  0  0  0  0  0  0  0
   58.7129  155.8311   -7.1085 C   0  0  0  0  0  0  0  0  0  0  0  0
   58.0583  153.5463   -7.5423 C   0  0  0  0  0  0  0  0  0  0  0  0
   57.7327  154.8389   -7.1313 C   0  0  0  0  0  0  0  0  0  0  0  0
   53.3589  156.3033   -3.4452 C   0  0  0  0  0  0  0  0  0  0  0  0
   56.3249  155.1619   -6.7125 C   0  0  0  0  0  0  0  0  0  0  0  0
   54.5372  156.9634   -5.6759 C   0  0  0  0  0  0  0  0  0  0  0  0
   53.5275  156.0651   -4.9567 C   0  0  2  0  0  0  0  0  0  0  0  0
   52.2521  156.1218   -5.7412 N   0  3  0  0  0  0  0  0  0  0  0  0
   52.9914  157.4690   -3.1221 O   0  5  0  0  0  0  0  0  0  0  0  0
   53.6305  155.3198   -2.7005 O   0  0  0  0  0  0  0  0  0  0  0  0
   56.2691  156.4449   -5.4422 S   0  0  0  0  0  0  0  0  0  0  0  0
   61.3604  154.0049   -8.2113 H   0  0  0  0  0  0  0  0  0  0  0  0
   60.7813  156.3038   -7.4800 H   0  0  0  0  0  0  0  0  0  0  0  0
   59.6168  152.2398   -8.2515 H   0  0  0  0  0  0  0  0  0  0  0  0
   58.4684  156.8409   -6.7896 H   0  0  0  0  0  0  0  0  0  0  0  0
   57.3012  152.7668   -7.5631 H   0  0  0  0  0  0  0  0  0  0  0  0
   55.7388  155.4938   -7.5767 H   0  0  0  0  0  0  0  0  0  0  0  0
   55.8311  154.2631   -6.3270 H   0  0  0  0  0  0  0  0  0  0  0  0
   54.3354  156.9723   -6.7528 H   0  0  0  0  0  0  0  0  0  0  0  0
   54.4493  157.9972   -5.3255 H   0  0  0  0  0  0  0  0  0  0  0  0
   53.8681  155.0262   -5.0524 H   0  0  0  0  0  0  0  0  0  0  0  0
   51.5442  155.5302   -5.3054 H   0  0  0  0  0  0  0  0  0  0  0  0
   52.4112  155.7949   -6.6947 H   0  0  0  0  0  0  0  0  0  0  0  0
   51.9029  157.0799   -5.7765 H   0  0  0  0  0  0  0  0  0  0  0  0
  1  2  1  0  0  0  0
  1  3  2  0  0  0  0
  2  4  2  0  0  0  0
  3  5  1  0  0  0  0
  4  6  1  0  0  0  0
  5  6  2  0  0  0  0
  6  8  1  0  0  0  0
  7 10  1  0  0  0  0
  7 12  1  0  0  0  0
  7 13  2  0  0  0  0
  8 14  1  0  0  0  0
  9 10  1  0  0  0  0
  9 14  1  0  0  0  0
 10 11  1  0  0  0  0
  1 15  1  0  0  0  0
  2 16  1  0  0  0  0
  3 17  1  0  0  0  0
  4 18  1  0  0  0  0
  5 19  1  0  0  0  0
  8 20  1  0  0  0  0
  8 21  1  0  0  0  0
  9 22  1  0  0  0  0
  9 23  1  0  0  0  0
 10 24  1  0  0  0  0
 11 25  1  0  0  0  0
 11 26  1  0  0  0  0
 11 27  1  0  0  0  0
M  CHG  2  11   1  12  -1
M  END
> <FRED Chemgauss4 score>
-10.797372

$$$$
Y-2-triFBP	P10000004
  -OEChem-05122015073D

 33 34  0     1  0  0  0  0  0999 V2000
   58.4611  158.0522   -4.8704 C   0  0  0  0  0  0  0  0  0  0  0  0
   57.1817  157.8291   -5.3792 C   0  0  0  0  0  0  0  0  0  0  0  0
   59.5800  157.6192   -5.5821 C   0  0  0  0  0  0  0  0  0  0  0  0
   58.1399  156.7400   -7.3112 C   0  0  0  0  0  0  0  0  0  0  0  0
   57.0210  157.1730   -6.5996 C   0  0  0  0  0  0  0  0  0  0  0  0
   59.4193  156.9631   -6.8025 C   0  0  0  0  0  0  0  0  0  0  0  0
   53.5637  156.0156   -3.0856 C   0  0  0  0  0  0  0  0  0  0  0  0
   54.8751  155.5744   -5.1403 C   0  0  0  0  0  0  0  0  0  0  0  0
   53.2146  156.4849   -6.5700 C   0  0  0  0  0  0  0  0  0  0  0  0
   53.5442  155.3355   -4.4377 C   0  0  2  0  0  0  0  0  0  0  0  0
   54.6087  156.7743   -6.0443 C   0  0  2  0  0  0  0  0  0  0  0  0
   55.6384  156.9337   -7.1493 C   0  0  0  0  0  0  0  0  0  0  0  0
   60.6158  156.4996   -7.5630 C   0  0  0  0  0  0  0  0  0  0  0  0
   52.5124  155.8928   -5.3846 N   0  3  0  0  0  0  0  0  0  0  0  0
   53.7943  157.2564   -3.1095 O   0  5  0  0  0  0  0  0  0  0  0  0
   53.3459  155.2505   -2.1046 O   0  0  0  0  0  0  0  0  0  0  0  0
   61.8007  156.7847   -6.9462 F   0  0  0  0  0  0  0  0  0  0  0  0
   60.6400  155.1504   -7.7745 F   0  0  0  0  0  0  0  0  0  0  0  0
   60.7023  157.0661   -8.8017 F   0  0  0  0  0  0  0  0  0  0  0  0
   58.5861  158.5632   -3.9201 H   0  0  0  0  0  0  0  0  0  0  0  0
   56.3158  158.1705   -4.8179 H   0  0  0  0  0  0  0  0  0  0  0  0
   60.5730  157.7966   -5.1777 H   0  0  0  0  0  0  0  0  0  0  0  0
   58.0153  156.2293   -8.2632 H   0  0  0  0  0  0  0  0  0  0  0  0
   55.7045  155.7651   -4.4506 H   0  0  0  0  0  0  0  0  0  0  0  0
   55.1385  154.6925   -5.7383 H   0  0  0  0  0  0  0  0  0  0  0  0
   52.6658  157.3754   -6.8874 H   0  0  0  0  0  0  0  0  0  0  0  0
   53.2036  155.7246   -7.3578 H   0  0  0  0  0  0  0  0  0  0  0  0
   53.3376  154.2686   -4.3092 H   0  0  0  0  0  0  0  0  0  0  0  0
   54.5894  157.6904   -5.4395 H   0  0  0  0  0  0  0  0  0  0  0  0
   55.3545  157.7662   -7.8058 H   0  0  0  0  0  0  0  0  0  0  0  0
   55.6451  156.0385   -7.7844 H   0  0  0  0  0  0  0  0  0  0  0  0
   51.9499  156.6144   -4.9129 H   0  0  0  0  0  0  0  0  0  0  0  0
   51.8521  155.1618   -5.6831 H   0  0  0  0  0  0  0  0  0  0  0  0
  1  2  1  0  0  0  0
  1  3  2  0  0  0  0
  2  5  2  0  0  0  0
  3  6  1  0  0  0  0
  4  5  1  0  0  0  0
  4  6  2  0  0  0  0
  5 12  1  0  0  0  0
  6 13  1  0  0  0  0
  7 10  1  0  0  0  0
  7 15  1  0  0  0  0
  7 16  2  0  0  0  0
  8 10  1  0  0  0  0
  8 11  1  0  0  0  0
  9 11  1  0  0  0  0
  9 14  1  0  0  0  0
 10 14  1  0  0  0  0
 11 12  1  0  0  0  0
 13 17  1  0  0  0  0
 13 18  1  0  0  0  0
 13 19  1  0  0  0  0
  1 20  1  0  0  0  0
  2 21  1  0  0  0  0
  3 22  1  0  0  0  0
  4 23  1  0  0  0  0
  8 24  1  0  0  0  0
  8 25  1  0  0  0  0
  9 26  1  0  0  0  0
  9 27  1  0  0  0  0
 10 28  1  0  0  0  0
 11 29  1  0  0  0  0
 12 30  1  0  0  0  0
 12 31  1  0  0  0  0
 14 32  1  0  0  0  0
 14 33  1  0  0  0  0
M  CHG  2  14   1  15  -1
M  END
> <FRED Chemgauss4 score>
-10.296938

$$$$
TFB-TBOA
  -OEChem-05122015073D

 47 48  0     1  0  0  0  0  0999 V2000
   59.0280  155.4895   -8.1523 C   0  0  0  0  0  0  0  0  0  0  0  0
   59.7576  161.6983   -4.3210 C   0  0  0  0  0  0  0  0  0  0  0  0
   60.5814  161.3762   -6.5692 C   0  0  0  0  0  0  0  0  0  0  0  0
   57.8219  155.0780   -7.5854 C   0  0  0  0  0  0  0  0  0  0  0  0
   60.5233  162.8586   -4.2066 C   0  0  0  0  0  0  0  0  0  0  0  0
   61.3471  162.5366   -6.4549 C   0  0  0  0  0  0  0  0  0  0  0  0
   59.5806  156.7206   -7.7991 C   0  0  0  0  0  0  0  0  0  0  0  0
   57.7207  157.1288   -6.3122 C   0  0  0  0  0  0  0  0  0  0  0  0
   59.7867  160.9571   -5.5022 C   0  0  0  0  0  0  0  0  0  0  0  0
   61.3180  163.2778   -5.2736 C   0  0  0  0  0  0  0  0  0  0  0  0
   57.1682  155.8976   -6.6654 C   0  0  0  0  0  0  0  0  0  0  0  0
   58.9269  157.5403   -6.8791 C   0  0  0  0  0  0  0  0  0  0  0  0
   58.9782  159.7319   -5.6243 C   0  0  0  0  0  0  0  0  0  0  0  0
   54.9886  157.1225   -2.1262 C   0  0  0  0  0  0  0  0  0  0  0  0
   53.4288  156.4987   -4.6546 C   0  0  0  0  0  0  0  0  0  0  0  0
   55.8706  155.4545   -6.0558 C   0  0  0  0  0  0  0  0  0  0  0  0
   54.6853  155.7076   -2.5985 C   0  0  2  0  0  0  0  0  0  0  0  0
   54.5433  155.6207   -4.1236 C   0  0  2  0  0  0  0  0  0  0  0  0
   62.1356  164.5192   -5.1512 C   0  0  0  0  0  0  0  0  0  0  0  0
   53.4294  155.2917   -1.9657 N   0  0  0  0  0  0  0  0  0  0  0  0
   59.4802  158.7713   -6.5255 N   0  0  0  0  0  0  0  0  0  0  0  0
   57.9287  159.6016   -4.9979 O   0  0  0  0  0  0  0  0  0  0  0  0
   54.1510  157.9844   -1.8921 O   0  0  0  0  0  0  0  0  0  0  0  0
   53.5423  157.6739   -4.9723 O   0  0  0  0  0  0  0  0  0  0  0  0
   56.3233  157.3454   -2.0030 O   0  0  0  0  0  0  0  0  0  0  0  0
   52.2570  155.8164   -4.7069 O   0  0  0  0  0  0  0  0  0  0  0  0
   55.7577  156.0082   -4.7517 O   0  0  0  0  0  0  0  0  0  0  0  0
   62.0084  165.1415   -3.9419 F   0  0  0  0  0  0  0  0  0  0  0  0
   63.4764  164.3078   -5.3035 F   0  0  0  0  0  0  0  0  0  0  0  0
   61.8050  165.4596   -6.0834 F   0  0  0  0  0  0  0  0  0  0  0  0
   59.5373  154.8511   -8.8684 H   0  0  0  0  0  0  0  0  0  0  0  0
   59.1417  161.3804   -3.4838 H   0  0  0  0  0  0  0  0  0  0  0  0
   60.6120  160.8066   -7.4944 H   0  0  0  0  0  0  0  0  0  0  0  0
   57.3990  154.1177   -7.8673 H   0  0  0  0  0  0  0  0  0  0  0  0
   60.4943  163.4301   -3.2827 H   0  0  0  0  0  0  0  0  0  0  0  0
   61.9631  162.8561   -7.2914 H   0  0  0  0  0  0  0  0  0  0  0  0
   60.5210  157.0312   -8.2474 H   0  0  0  0  0  0  0  0  0  0  0  0
   57.2086  157.7666   -5.5950 H   0  0  0  0  0  0  0  0  0  0  0  0
   55.0199  155.7875   -6.6601 H   0  0  0  0  0  0  0  0  0  0  0  0
   55.8275  154.3622   -5.9872 H   0  0  0  0  0  0  0  0  0  0  0  0
   55.4668  155.0344   -2.2296 H   0  0  0  0  0  0  0  0  0  0  0  0
   54.3253  154.5914   -4.4350 H   0  0  0  0  0  0  0  0  0  0  0  0
   53.2378  155.6300   -1.0508 H   0  0  0  0  0  0  0  0  0  0  0  0
   52.9280  154.5409   -2.3819 H   0  0  0  0  0  0  0  0  0  0  0  0
   60.3689  159.0085   -6.9813 H   0  0  0  0  0  0  0  0  0  0  0  0
   56.5738  158.2480   -1.7123 H   0  0  0  0  0  0  0  0  0  0  0  0
   51.5203  156.3786   -5.0284 H   0  0  0  0  0  0  0  0  0  0  0  0
  1  4  2  0  0  0  0
  1  7  1  0  0  0  0
  2  5  1  0  0  0  0
  2  9  2  0  0  0  0
  3  6  2  0  0  0  0
  3  9  1  0  0  0  0
  4 11  1  0  0  0  0
  5 10  2  0  0  0  0
  6 10  1  0  0  0  0
  7 12  2  0  0  0  0
  8 11  2  0  0  0  0
  8 12  1  0  0  0  0
  9 13  1  0  0  0  0
 10 19  1  0  0  0  0
 11 16  1  0  0  0  0
 12 21  1  0  0  0  0
 13 21  1  0  0  0  0
 13 22  2  0  0  0  0
 14 17  1  0  0  0  0
 14 23  2  0  0  0  0
 14 25  1  0  0  0  0
 15 18  1  0  0  0  0
 15 24  2  0  0  0  0
 15 26  1  0  0  0  0
 16 27  1  0  0  0  0
 17 18  1  0  0  0  0
 17 20  1  0  0  0  0
 18 27  1  0  0  0  0
 19 28  1  0  0  0  0
 19 29  1  0  0  0  0
 19 30  1  0  0  0  0
  1 31  1  0  0  0  0
  2 32  1  0  0  0  0
  3 33  1  0  0  0  0
  4 34  1  0  0  0  0
  5 35  1  0  0  0  0
  6 36  1  0  0  0  0
  7 37  1  0  0  0  0
  8 38  1  0  0  0  0
 16 39  1  0  0  0  0
 16 40  1  0  0  0  0
 17 41  1  0  0  0  0
 18 42  1  0  0  0  0
 20 43  1  0  0  0  0
 20 44  1  0  0  0  0
 21 45  1  0  0  0  0
 25 46  1  0  0  0  0
 26 47  1  0  0  0  0
M  END
> <FRED Chemgauss4 score>
-10.149442

$$$$
4C_CG2012	P10000016
  -OEChem-05122015073D

 25 24  0     1  0  0  0  0  0999 V2000
   53.7590  156.1894   -3.4376 C   0  0  0  0  0  0  0  0  0  0  0  0
   56.2229  154.1124   -6.4063 C   0  0  0  0  0  0  0  0  0  0  0  0
   58.4366  153.8538   -7.5127 C   0  0  0  0  0  0  0  0  0  0  0  0
   57.6947  156.1178   -6.7107 C   0  0  0  0  0  0  0  0  0  0  0  0
   54.1635  154.4023   -5.2769 C   0  0  0  0  0  0  0  0  0  0  0  0
   53.3359  155.5873   -4.7887 C   0  0  1  0  0  0  0  0  0  0  0  0
   57.6555  154.6146   -6.4479 C   0  0  0  0  0  0  0  0  0  0  0  0
   51.9017  155.1571   -4.8225 N   0  3  0  0  0  0  0  0  0  0  0  0
   53.7202  155.4142   -2.4423 O   0  5  0  0  0  0  0  0  0  0  0  0
   54.0815  157.4120   -3.4834 O   0  0  0  0  0  0  0  0  0  0  0  0
   55.7689  153.2342   -7.1281 O   0  0  0  0  0  0  0  0  0  0  0  0
   55.5336  154.7840   -5.4363 O   0  0  0  0  0  0  0  0  0  0  0  0
   58.0049  154.0166   -8.5056 H   0  0  0  0  0  0  0  0  0  0  0  0
   58.4364  152.7767   -7.3114 H   0  0  0  0  0  0  0  0  0  0  0  0
   59.4815  154.1811   -7.5421 H   0  0  0  0  0  0  0  0  0  0  0  0
   57.2579  156.3533   -7.6868 H   0  0  0  0  0  0  0  0  0  0  0  0
   58.7260  156.4873   -6.7031 H   0  0  0  0  0  0  0  0  0  0  0  0
   57.1387  156.6733   -5.9472 H   0  0  0  0  0  0  0  0  0  0  0  0
   53.7933  154.0393   -6.2421 H   0  0  0  0  0  0  0  0  0  0  0  0
   54.1182  153.5735   -4.5626 H   0  0  0  0  0  0  0  0  0  0  0  0
   53.4127  156.3949   -5.5271 H   0  0  0  0  0  0  0  0  0  0  0  0
   58.1034  154.4384   -5.4621 H   0  0  0  0  0  0  0  0  0  0  0  0
   51.6272  154.7731   -3.9176 H   0  0  0  0  0  0  0  0  0  0  0  0
   51.7656  154.4410   -5.5371 H   0  0  0  0  0  0  0  0  0  0  0  0
   51.2997  155.9529   -5.0370 H   0  0  0  0  0  0  0  0  0  0  0  0
  1  6  1  0  0  0  0
  1  9  1  0  0  0  0
  1 10  2  0  0  0  0
  2  7  1  0  0  0  0
  2 11  2  0  0  0  0
  2 12  1  0  0  0  0
  3  7  1  0  0  0  0
  4  7  1  0  0  0  0
  5  6  1  0  0  0  0
  5 12  1  0  0  0  0
  6  8  1  0  0  0  0
  3 13  1  0  0  0  0
  3 14  1  0  0  0  0
  3 15  1  0  0  0  0
  4 16  1  0  0  0  0
  4 17  1  0  0  0  0
  4 18  1  0  0  0  0
  5 19  1  0  0  0  0
  5 20  1  0  0  0  0
  6 21  1  0  0  0  0
  7 22  1  0  0  0  0
  8 23  1  0  0  0  0
  8 24  1  0  0  0  0
  8 25  1  0  0  0  0
M  CHG  2   8   1   9  -1
M  END
> <FRED Chemgauss4 score>
-10.035250

$$$$
C34516107	P59205293
  -OEChem-05122015073D

 24 23  0     1  0  0  0  0  0999 V2000
   55.9792  154.0001   -6.8518 C   0  0  0  0  0  0  0  0  0  0  0  0
   56.1438  155.0581   -6.3086 C   0  0  0  0  0  0  0  0  0  0  0  0
   55.1661  158.1580   -4.5986 C   0  0  0  0  0  0  0  0  0  0  0  0
   56.3494  156.3496   -5.6483 C   0  0  0  0  0  0  0  0  0  0  0  0
   55.1458  155.9713   -3.6035 C   0  0  0  0  0  0  0  0  0  0  0  0
   52.7371  155.0781   -4.0455 C   0  0  0  0  0  0  0  0  0  0  0  0
   53.7021  155.7870   -3.0628 C   0  0  1  0  0  0  0  0  0  0  0  0
   55.1744  156.7191   -4.8600 N   0  0  1  0  0  0  0  0  0  0  0  0
   52.2284  155.9887   -5.1050 N   0  3  0  0  0  0  0  0  0  0  0  0
   53.7717  155.0197   -1.9844 O   0  5  0  0  0  0  0  0  0  0  0  0
   55.8327  153.0619   -7.3339 H   0  0  0  0  0  0  0  0  0  0  0  0
   54.2859  158.4278   -4.0093 H   0  0  0  0  0  0  0  0  0  0  0  0
   55.1428  158.7131   -5.5403 H   0  0  0  0  0  0  0  0  0  0  0  0
   56.0630  158.4465   -4.0439 H   0  0  0  0  0  0  0  0  0  0  0  0
   56.5419  157.1300   -6.3909 H   0  0  0  0  0  0  0  0  0  0  0  0
   57.2228  156.3001   -4.9903 H   0  0  0  0  0  0  0  0  0  0  0  0
   55.7967  156.4769   -2.8779 H   0  0  0  0  0  0  0  0  0  0  0  0
   55.5981  154.9885   -3.7947 H   0  0  0  0  0  0  0  0  0  0  0  0
   53.2349  154.2547   -4.5685 H   0  0  0  0  0  0  0  0  0  0  0  0
   51.8556  154.6690   -3.5363 H   0  0  0  0  0  0  0  0  0  0  0  0
   53.2956  156.8054   -2.9574 H   0  0  0  0  0  0  0  0  0  0  0  0
   52.2829  156.9657   -4.8019 H   0  0  0  0  0  0  0  0  0  0  0  0
   51.2505  155.7778   -5.3263 H   0  0  0  0  0  0  0  0  0  0  0  0
   52.7781  155.8902   -5.9639 H   0  0  0  0  0  0  0  0  0  0  0  0
  1  2  3  0  0  0  0
  2  4  1  0  0  0  0
  3  8  1  0  0  0  0
  4  8  1  0  0  0  0
  5  7  1  0  0  0  0
  5  8  1  0  0  0  0
  6  7  1  0  0  0  0
  6  9  1  0  0  0  0
  7 10  1  0  0  0  0
  1 11  1  0  0  0  0
  3 12  1  0  0  0  0
  3 13  1  0  0  0  0
  3 14  1  0  0  0  0
  4 15  1  0  0  0  0
  4 16  1  0  0  0  0
  5 17  1  0  0  0  0
  5 18  1  0  0  0  0
  6 19  1  0  0  0  0
  6 20  1  0  0  0  0
  7 21  1  0  0  0  0
  9 22  1  0  0  0  0
  9 23  1  0  0  0  0
  9 24  1  0  0  0  0
M  CHG  2   9   1  10  -1
M  END
> <FRED Chemgauss4 score>
-9.960485

$$$$
C72128274	P111969138
  -OEChem-05122015073D

 41 44  0     0  0  0  0  0  0999 V2000
   58.4512  153.9965   -7.0108 C   0  0  0  0  0  0  0  0  0  0  0  0
   56.3531  156.2393   -4.6489 C   0  0  0  0  0  0  0  0  0  0  0  0
   58.8187  157.7406   -6.5328 C   0  0  0  0  0  0  0  0  0  0  0  0
   59.5519  153.3433   -7.5222 C   0  0  0  0  0  0  0  0  0  0  0  0
   55.7084  156.6001   -6.8526 C   0  0  0  0  0  0  0  0  0  0  0  0
   58.7800  155.3739   -6.9061 C   0  0  0  0  0  0  0  0  0  0  0  0
   56.7748  156.4584   -5.9922 C   0  0  0  0  0  0  0  0  0  0  0  0
   58.1206  156.5358   -6.4736 C   0  0  0  0  0  0  0  0  0  0  0  0
   54.9804  156.2222   -4.5338 C   0  0  0  0  0  0  0  0  0  0  0  0
   60.0873  155.5122   -7.3636 C   0  0  0  0  0  0  0  0  0  0  0  0
   60.1216  157.7346   -7.0124 C   0  0  0  0  0  0  0  0  0  0  0  0
   54.1827  156.0331   -3.3657 C   0  0  0  0  0  0  0  0  0  0  0  0
   59.9702  161.9073   -4.9402 C   0  0  0  0  0  0  0  0  0  0  0  0
   60.4042  162.5665   -6.2523 C   0  0  0  0  0  0  0  0  0  0  0  0
   60.2272  160.4128   -5.1140 C   0  0  0  0  0  0  0  0  0  0  0  0
   60.8989  161.4348   -7.1493 C   0  0  0  0  0  0  0  0  0  0  0  0
   60.1610  160.2097   -6.6229 C   0  0  0  0  0  0  0  0  0  0  0  0
   60.8055  156.6484   -7.4413 N   0  0  0  0  0  0  0  0  0  0  0  0
   60.5381  154.2720   -7.7320 N   0  0  0  0  0  0  0  0  0  0  0  0
   52.7839  156.0554   -3.4929 N   0  0  0  0  0  0  0  0  0  0  0  0
   60.7688  158.9619   -7.0489 N   0  0  0  0  0  0  0  0  0  0  0  0
   54.6850  155.8637   -2.2249 O   0  0  0  0  0  0  0  0  0  0  0  0
   54.2062  156.4692   -6.0411 S   0  0  0  0  0  0  0  0  0  0  0  0
   57.5154  153.5247   -6.7441 H   0  0  0  0  0  0  0  0  0  0  0  0
   57.0216  156.1017   -3.8075 H   0  0  0  0  0  0  0  0  0  0  0  0
   58.3493  158.6663   -6.2090 H   0  0  0  0  0  0  0  0  0  0  0  0
   59.7209  152.3013   -7.7547 H   0  0  0  0  0  0  0  0  0  0  0  0
   55.7273  156.7741   -7.9204 H   0  0  0  0  0  0  0  0  0  0  0  0
   60.5181  162.3087   -4.0818 H   0  0  0  0  0  0  0  0  0  0  0  0
   58.9041  162.0938   -4.7665 H   0  0  0  0  0  0  0  0  0  0  0  0
   59.5487  163.0732   -6.7135 H   0  0  0  0  0  0  0  0  0  0  0  0
   61.1843  163.3178   -6.0925 H   0  0  0  0  0  0  0  0  0  0  0  0
   61.2197  160.1573   -4.7211 H   0  0  0  0  0  0  0  0  0  0  0  0
   59.4931  159.8024   -4.5787 H   0  0  0  0  0  0  0  0  0  0  0  0
   60.6912  161.6252   -8.2070 H   0  0  0  0  0  0  0  0  0  0  0  0
   61.9851  161.3197   -7.0424 H   0  0  0  0  0  0  0  0  0  0  0  0
   59.1029  160.2329   -6.9581 H   0  0  0  0  0  0  0  0  0  0  0  0
   61.4571  154.0734   -8.1025 H   0  0  0  0  0  0  0  0  0  0  0  0
   52.3794  156.2052   -4.4108 H   0  0  0  0  0  0  0  0  0  0  0  0
   52.1631  155.9272   -2.7003 H   0  0  0  0  0  0  0  0  0  0  0  0
   61.7233  158.9851   -7.3957 H   0  0  0  0  0  0  0  0  0  0  0  0
  1  4  2  0  0  0  0
  1  6  1  0  0  0  0
  2  7  1  0  0  0  0
  2  9  2  0  0  0  0
  3  8  1  0  0  0  0
  3 11  2  0  0  0  0
  4 19  1  0  0  0  0
  5  7  2  0  0  0  0
  5 23  1  0  0  0  0
  6  8  2  0  0  0  0
  6 10  1  0  0  0  0
  7  8  1  0  0  0  0
  9 12  1  0  0  0  0
  9 23  1  0  0  0  0
 10 18  2  0  0  0  0
 10 19  1  0  0  0  0
 11 18  1  0  0  0  0
 11 21  1  0  0  0  0
 12 20  1  0  0  0  0
 12 22  2  0  0  0  0
 13 14  1  0  0  0  0
 13 15  1  0  0  0  0
 14 16  1  0  0  0  0
 15 17  1  0  0  0  0
 16 17  1  0  0  0  0
 17 21  1  0  0  0  0
  1 24  1  0  0  0  0
  2 25  1  0  0  0  0
  3 26  1  0  0  0  0
  4 27  1  0  0  0  0
  5 28  1  0  0  0  0
 13 29  1  0  0  0  0
 13 30  1  0  0  0  0
 14 31  1  0  0  0  0
 14 32  1  0  0  0  0
 15 33  1  0  0  0  0
 15 34  1  0  0  0  0
 16 35  1  0  0  0  0
 16 36  1  0  0  0  0
 17 37  1  0  0  0  0
 19 38  1  0  0  0  0
 20 39  1  0  0  0  0
 20 40  1  0  0  0  0
 21 41  1  0  0  0  0
M  END
> <FRED Chemgauss4 score>
-9.933837

$$$$
C04962298	P07250663
  -OEChem-05122015073D

 41 42  0     1  0  0  0  0  0999 V2000
   55.6579  153.1062   -6.3823 C   0  0  0  0  0  0  0  0  0  0  0  0
   54.4108  154.5000   -7.9117 C   0  0  0  0  0  0  0  0  0  0  0  0
   58.4086  155.1546   -6.2623 C   0  0  0  0  0  0  0  0  0  0  0  0
   57.5172  156.8224   -7.7659 C   0  0  0  0  0  0  0  0  0  0  0  0
   55.1046  151.9679   -6.9684 C   0  0  0  0  0  0  0  0  0  0  0  0
   53.8575  153.3616   -8.4979 C   0  0  0  0  0  0  0  0  0  0  0  0
   59.6896  155.3888   -6.7619 C   0  0  0  0  0  0  0  0  0  0  0  0
   58.7983  157.0566   -8.2655 C   0  0  0  0  0  0  0  0  0  0  0  0
   55.3110  154.3723   -6.8539 C   0  0  0  0  0  0  0  0  0  0  0  0
   57.3223  155.8714   -6.7643 C   0  0  0  0  0  0  0  0  0  0  0  0
   54.2044  152.0956   -8.0263 C   0  0  0  0  0  0  0  0  0  0  0  0
   59.8845  156.3398   -7.7635 C   0  0  0  0  0  0  0  0  0  0  0  0
   53.4503  156.2952   -3.3726 C   0  0  0  0  0  0  0  0  0  0  0  0
   55.9164  155.6158   -6.2151 C   0  0  0  0  0  0  0  0  0  0  0  0
   53.2490  155.6472   -4.7456 C   0  0  2  0  0  0  0  0  0  0  0  0
   54.9959  156.8698   -6.2659 C   0  0  1  0  0  0  0  0  0  0  0  0
   53.5056  156.5951   -5.9359 C   0  0  2  0  0  0  0  0  0  0  0  0
   53.1757  155.3791   -2.3223 O   0  0  0  0  0  0  0  0  0  0  0  0
   51.9282  155.1134   -4.8019 O   0  0  0  0  0  0  0  0  0  0  0  0
   55.5121  157.8304   -5.3358 O   0  0  0  0  0  0  0  0  0  0  0  0
   52.8798  157.8560   -5.6765 O   0  0  0  0  0  0  0  0  0  0  0  0
   53.5220  150.6912   -8.7492 Cl  0  0  0  0  0  0  0  0  0  0  0  0
   61.4649  156.6286   -8.3795 Cl  0  0  0  0  0  0  0  0  0  0  0  0
   56.3585  152.9985   -5.5584 H   0  0  0  0  0  0  0  0  0  0  0  0
   54.1355  155.4828   -8.2852 H   0  0  0  0  0  0  0  0  0  0  0  0
   58.2649  154.4118   -5.4820 H   0  0  0  0  0  0  0  0  0  0  0  0
   56.6762  157.3853   -8.1623 H   0  0  0  0  0  0  0  0  0  0  0  0
   55.3845  150.9879   -6.5906 H   0  0  0  0  0  0  0  0  0  0  0  0
   53.1573  153.4765   -9.3214 H   0  0  0  0  0  0  0  0  0  0  0  0
   60.5265  154.8229   -6.3608 H   0  0  0  0  0  0  0  0  0  0  0  0
   58.9350  157.8007   -9.0461 H   0  0  0  0  0  0  0  0  0  0  0  0
   52.7665  157.1425   -3.2554 H   0  0  0  0  0  0  0  0  0  0  0  0
   54.4797  156.6513   -3.2637 H   0  0  0  0  0  0  0  0  0  0  0  0
   56.0574  155.4084   -5.1445 H   0  0  0  0  0  0  0  0  0  0  0  0
   53.9359  154.7971   -4.8026 H   0  0  0  0  0  0  0  0  0  0  0  0
   55.0436  157.3489   -7.2506 H   0  0  0  0  0  0  0  0  0  0  0  0
   53.0066  156.1806   -6.8188 H   0  0  0  0  0  0  0  0  0  0  0  0
   53.3230  155.8549   -1.4887 H   0  0  0  0  0  0  0  0  0  0  0  0
   51.8645  154.4593   -4.0890 H   0  0  0  0  0  0  0  0  0  0  0  0
   55.4905  157.4022   -4.4685 H   0  0  0  0  0  0  0  0  0  0  0  0
   53.0668  158.4136   -6.4454 H   0  0  0  0  0  0  0  0  0  0  0  0
  1  5  1  0  0  0  0
  1  9  2  0  0  0  0
  2  6  2  0  0  0  0
  2  9  1  0  0  0  0
  3  7  2  0  0  0  0
  3 10  1  0  0  0  0
  4  8  1  0  0  0  0
  4 10  2  0  0  0  0
  5 11  2  0  0  0  0
  6 11  1  0  0  0  0
  7 12  1  0  0  0  0
  8 12  2  0  0  0  0
  9 14  1  0  0  0  0
 10 14  1  0  0  0  0
 11 22  1  0  0  0  0
 12 23  1  0  0  0  0
 13 15  1  0  0  0  0
 13 18  1  0  0  0  0
 14 16  1  0  0  0  0
 15 17  1  0  0  0  0
 15 19  1  0  0  0  0
 16 17  1  0  0  0  0
 16 20  1  0  0  0  0
 17 21  1  0  0  0  0
  1 24  1  0  0  0  0
  2 25  1  0  0  0  0
  3 26  1  0  0  0  0
  4 27  1  0  0  0  0
  5 28  1  0  0  0  0
  6 29  1  0  0  0  0
  7 30  1  0  0  0  0
  8 31  1  0  0  0  0
 13 32  1  0  0  0  0
 13 33  1  0  0  0  0
 14 34  1  0  0  0  0
 15 35  1  0  0  0  0
 16 36  1  0  0  0  0
 17 37  1  0  0  0  0
 18 38  1  0  0  0  0
 19 39  1  0  0  0  0
 20 40  1  0  0  0  0
 21 41  1  0  0  0  0
M  END
> <FRED Chemgauss4 score>
-9.882034

$$$$
L-DOPS	P10000036
  -OEChem-05122015073D

 26 26  0     1  0  0  0  0  0999 V2000
   56.6821  154.9715   -6.1301 C   0  0  0  0  0  0  0  0  0  0  0  0
   57.6181  154.3740   -6.9742 C   0  0  0  0  0  0  0  0  0  0  0  0
   55.0341  153.3371   -6.8005 C   0  0  0  0  0  0  0  0  0  0  0  0
   55.3901  154.4530   -6.0432 C   0  0  0  0  0  0  0  0  0  0  0  0
   57.2621  153.2581   -7.7315 C   0  0  0  0  0  0  0  0  0  0  0  0
   55.9701  152.7396   -7.6447 C   0  0  0  0  0  0  0  0  0  0  0  0
   54.0600  156.0081   -2.7016 C   0  0  0  0  0  0  0  0  0  0  0  0
   54.3727  155.1012   -5.1231 C   0  0  1  0  0  0  0  0  0  0  0  0
   55.0099  155.7820   -3.8953 C   0  0  1  0  0  0  0  0  0  0  0  0
   55.6680  157.0578   -4.3276 N   0  3  0  0  0  0  0  0  0  0  0  0
   53.1397  155.1598   -2.5425 O   0  5  0  0  0  0  0  0  0  0  0  0
   54.3291  157.0325   -2.0087 O   0  0  0  0  0  0  0  0  0  0  0  0
   58.1855  152.6838   -8.5523 O   0  0  0  0  0  0  0  0  0  0  0  0
   55.6104  151.6507   -8.3800 O   0  0  0  0  0  0  0  0  0  0  0  0
   53.5613  156.0273   -5.8476 O   0  0  0  0  0  0  0  0  0  0  0  0
   56.9688  155.8396   -5.5426 H   0  0  0  0  0  0  0  0  0  0  0  0
   58.6226  154.7833   -7.0373 H   0  0  0  0  0  0  0  0  0  0  0  0
   54.0277  152.9305   -6.7342 H   0  0  0  0  0  0  0  0  0  0  0  0
   53.6910  154.3071   -4.7916 H   0  0  0  0  0  0  0  0  0  0  0  0
   55.8278  155.1568   -3.5143 H   0  0  0  0  0  0  0  0  0  0  0  0
   55.1179  157.8592   -4.0183 H   0  0  0  0  0  0  0  0  0  0  0  0
   55.7458  157.0852   -5.3446 H   0  0  0  0  0  0  0  0  0  0  0  0
   56.6027  157.1251   -3.9243 H   0  0  0  0  0  0  0  0  0  0  0  0
   59.0274  153.1624   -8.4960 H   0  0  0  0  0  0  0  0  0  0  0  0
   54.6845  151.4195   -8.2057 H   0  0  0  0  0  0  0  0  0  0  0  0
   52.9383  156.4028   -5.2077 H   0  0  0  0  0  0  0  0  0  0  0  0
  1  2  1  0  0  0  0
  1  4  2  0  0  0  0
  2  5  2  0  0  0  0
  3  4  1  0  0  0  0
  3  6  2  0  0  0  0
  4  8  1  0  0  0  0
  5  6  1  0  0  0  0
  5 13  1  0  0  0  0
  6 14  1  0  0  0  0
  7  9  1  0  0  0  0
  7 11  1  0  0  0  0
  7 12  2  0  0  0  0
  8  9  1  0  0  0  0
  8 15  1  0  0  0  0
  9 10  1  0  0  0  0
  1 16  1  0  0  0  0
  2 17  1  0  0  0  0
  3 18  1  0  0  0  0
  8 19  1  0  0  0  0
  9 20  1  0  0  0  0
 10 21  1  0  0  0  0
 10 22  1  0  0  0  0
 10 23  1  0  0  0  0
 13 24  1  0  0  0  0
 14 25  1  0  0  0  0
 15 26  1  0  0  0  0
M  CHG  2  10   1  11  -1
M  END
> <FRED Chemgauss4 score>
-9.878829

$$$$
C72012622	P111774762
  -OEChem-05122015073D

 39 40  0     1  0  0  0  0  0999 V2000
   58.9804  161.6009   -1.5633 C   0  0  0  0  0  0  0  0  0  0  0  0
   59.4998  161.9164   -2.7556 C   0  0  0  0  0  0  0  0  0  0  0  0
   57.9807  159.6005   -2.4387 C   0  0  0  0  0  0  0  0  0  0  0  0
   58.1927  160.4048   -1.3881 C   0  0  0  0  0  0  0  0  0  0  0  0
   59.2707  161.0282   -3.9337 C   0  0  0  0  0  0  0  0  0  0  0  0
   53.9636  155.8223   -3.8022 C   0  0  0  0  0  0  0  0  0  0  0  0
   58.5059  156.6524   -5.6447 C   0  0  0  0  0  0  0  0  0  0  0  0
   56.1224  153.8594   -6.2053 C   0  0  0  0  0  0  0  0  0  0  0  0
   54.8025  154.3369   -5.5988 C   0  0  0  0  0  0  0  0  0  0  0  0
   56.9740  155.0253   -6.6896 C   0  0  0  0  0  0  0  0  0  0  0  0
   56.3281  156.0517   -4.5031 C   0  0  0  0  0  0  0  0  0  0  0  0
   54.9068  155.7272   -4.9616 C   0  0  2  0  0  0  0  0  0  0  0  0
   58.7794  157.5872   -4.4923 C   0  0  0  0  0  0  0  0  0  0  0  0
   58.2297  158.9682   -4.7926 C   0  0  0  0  0  0  0  0  0  0  0  0
   58.4956  159.8775   -3.7017 N   0  0  0  0  0  0  0  0  0  0  0  0
   57.3021  155.9468   -5.5984 N   0  0  0  0  0  0  0  0  0  0  0  0
   52.6537  155.5641   -4.1305 N   0  0  0  0  0  0  0  0  0  0  0  0
   59.7604  161.3434   -5.0170 O   0  0  0  0  0  0  0  0  0  0  0  0
   54.3493  156.0908   -2.6671 O   0  0  0  0  0  0  0  0  0  0  0  0
   59.3301  156.5535   -6.5570 O   0  0  0  0  0  0  0  0  0  0  0  0
   57.5057  160.0386    0.3053 Br  0  0  0  0  0  0  0  0  0  0  0  0
   59.1540  162.2526   -0.7131 H   0  0  0  0  0  0  0  0  0  0  0  0
   60.0937  162.8115   -2.8985 H   0  0  0  0  0  0  0  0  0  0  0  0
   57.3958  158.6898   -2.3601 H   0  0  0  0  0  0  0  0  0  0  0  0
   56.6822  153.2836   -5.4550 H   0  0  0  0  0  0  0  0  0  0  0  0
   55.9191  153.1759   -7.0400 H   0  0  0  0  0  0  0  0  0  0  0  0
   54.0378  154.3652   -6.3904 H   0  0  0  0  0  0  0  0  0  0  0  0
   54.4570  153.5999   -4.8584 H   0  0  0  0  0  0  0  0  0  0  0  0
   57.8876  154.6433   -7.1638 H   0  0  0  0  0  0  0  0  0  0  0  0
   56.4361  155.6045   -7.4545 H   0  0  0  0  0  0  0  0  0  0  0  0
   56.3770  157.0883   -4.1388 H   0  0  0  0  0  0  0  0  0  0  0  0
   56.6027  155.4097   -3.6591 H   0  0  0  0  0  0  0  0  0  0  0  0
   54.5790  156.4759   -5.6810 H   0  0  0  0  0  0  0  0  0  0  0  0
   59.8627  157.6290   -4.3735 H   0  0  0  0  0  0  0  0  0  0  0  0
   58.3326  157.1542   -3.5969 H   0  0  0  0  0  0  0  0  0  0  0  0
   58.7141  159.3544   -5.6954 H   0  0  0  0  0  0  0  0  0  0  0  0
   57.1509  158.9375   -4.9786 H   0  0  0  0  0  0  0  0  0  0  0  0
   52.4286  155.3373   -5.0936 H   0  0  0  0  0  0  0  0  0  0  0  0
   51.9028  155.5913   -3.4483 H   0  0  0  0  0  0  0  0  0  0  0  0
  1  2  2  0  0  0  0
  1  4  1  0  0  0  0
  2  5  1  0  0  0  0
  3  4  2  0  0  0  0
  3 15  1  0  0  0  0
  4 21  1  0  0  0  0
  5 15  1  0  0  0  0
  5 18  2  0  0  0  0
  6 12  1  0  0  0  0
  6 17  1  0  0  0  0
  6 19  2  0  0  0  0
  7 13  1  0  0  0  0
  7 16  1  0  0  0  0
  7 20  2  0  0  0  0
  8  9  1  0  0  0  0
  8 10  1  0  0  0  0
  9 12  1  0  0  0  0
 10 16  1  0  0  0  0
 11 12  1  0  0  0  0
 11 16  1  0  0  0  0
 13 14  1  0  0  0  0
 14 15  1  0  0  0  0
  1 22  1  0  0  0  0
  2 23  1  0  0  0  0
  3 24  1  0  0  0  0
  8 25  1  0  0  0  0
  8 26  1  0  0  0  0
  9 27  1  0  0  0  0
  9 28  1  0  0  0  0
 10 29  1  0  0  0  0
 10 30  1  0  0  0  0
 11 31  1  0  0  0  0
 11 32  1  0  0  0  0
 12 33  1  0  0  0  0
 13 34  1  0  0  0  0
 13 35  1  0  0  0  0
 14 36  1  0  0  0  0
 14 37  1  0  0  0  0
 17 38  1  0  0  0  0
 17 39  1  0  0  0  0
M  END
> <FRED Chemgauss4 score>
-9.877802

$$$$
C91468339	P143138873
  -OEChem-05122015073D

 45 47  0     1  0  0  0  0  0999 V2000
   61.7444  163.8246   -4.2773 C   0  0  0  0  0  0  0  0  0  0  0  0
   61.1784  162.7444   -4.9773 C   0  0  0  0  0  0  0  0  0  0  0  0
   61.1801  163.1519   -6.2905 C   0  0  0  0  0  0  0  0  0  0  0  0
   58.3863  159.3946   -4.9591 C   0  0  0  0  0  0  0  0  0  0  0  0
   53.2500  155.5499   -3.6944 C   0  0  0  0  0  0  0  0  0  0  0  0
   60.6423  161.4328   -4.5383 C   0  0  0  0  0  0  0  0  0  0  0  0
   60.7082  162.3742   -7.4595 C   0  0  0  0  0  0  0  0  0  0  0  0
   59.8594  161.1820   -6.9714 C   0  0  0  0  0  0  0  0  0  0  0  0
   56.7103  158.2422   -3.5377 C   0  0  0  0  0  0  0  0  0  0  0  0
   57.1602  157.4540   -5.8759 C   0  0  0  0  0  0  0  0  0  0  0  0
   55.9594  156.9335   -3.2859 C   0  0  0  0  0  0  0  0  0  0  0  0
   56.3932  156.1723   -5.5464 C   0  0  0  0  0  0  0  0  0  0  0  0
   57.7741  158.0708   -4.6203 C   0  0  0  0  0  0  0  0  0  0  0  0
   60.4833  160.4727   -5.7436 C   0  0  2  0  0  0  0  0  0  0  0  0
   54.6057  155.1956   -4.2605 C   0  0  0  0  0  0  0  0  0  0  0  0
   62.0842  164.8370   -5.0841 N   0  0  0  0  0  0  0  0  0  0  0  0
   61.7291  164.3966   -6.3070 N   0  0  0  0  0  0  0  0  0  0  0  0
   55.3642  156.4178   -4.5264 N   0  0  0  0  0  0  0  0  0  0  0  0
   52.3022  155.7301   -4.6789 N   0  0  0  0  0  0  0  0  0  0  0  0
   59.7039  159.3170   -5.3682 N   0  0  0  0  0  0  0  0  0  0  0  0
   57.7141  160.4144   -4.8592 O   0  0  0  0  0  0  0  0  0  0  0  0
   53.0070  155.6241   -2.4930 O   0  0  0  0  0  0  0  0  0  0  0  0
   61.9271  163.9205   -3.2166 H   0  0  0  0  0  0  0  0  0  0  0  0
   61.3546  160.9939   -3.8308 H   0  0  0  0  0  0  0  0  0  0  0  0
   59.6909  161.5624   -4.0134 H   0  0  0  0  0  0  0  0  0  0  0  0
   60.0990  163.0213   -8.1009 H   0  0  0  0  0  0  0  0  0  0  0  0
   61.5504  162.0108   -8.0578 H   0  0  0  0  0  0  0  0  0  0  0  0
   58.8497  161.5277   -6.7439 H   0  0  0  0  0  0  0  0  0  0  0  0
   59.7797  160.4522   -7.7815 H   0  0  0  0  0  0  0  0  0  0  0  0
   55.9996  159.0202   -3.8145 H   0  0  0  0  0  0  0  0  0  0  0  0
   57.1978  158.5521   -2.6120 H   0  0  0  0  0  0  0  0  0  0  0  0
   57.9599  157.2177   -6.5812 H   0  0  0  0  0  0  0  0  0  0  0  0
   56.4890  158.1626   -6.3626 H   0  0  0  0  0  0  0  0  0  0  0  0
   56.6734  156.2039   -2.8866 H   0  0  0  0  0  0  0  0  0  0  0  0
   55.1906  157.0872   -2.5185 H   0  0  0  0  0  0  0  0  0  0  0  0
   55.9503  155.7505   -6.4576 H   0  0  0  0  0  0  0  0  0  0  0  0
   57.1144  155.4350   -5.1718 H   0  0  0  0  0  0  0  0  0  0  0  0
   58.5726  157.4416   -4.2583 H   0  0  0  0  0  0  0  0  0  0  0  0
   61.4694  160.0864   -6.0133 H   0  0  0  0  0  0  0  0  0  0  0  0
   54.5050  154.6479   -5.2014 H   0  0  0  0  0  0  0  0  0  0  0  0
   55.1587  154.5927   -3.5350 H   0  0  0  0  0  0  0  0  0  0  0  0
   61.8897  165.0023   -7.1023 H   0  0  0  0  0  0  0  0  0  0  0  0
   52.5418  155.6236   -5.6590 H   0  0  0  0  0  0  0  0  0  0  0  0
   51.3390  155.9717   -4.4687 H   0  0  0  0  0  0  0  0  0  0  0  0
   60.1451  158.4031   -5.4066 H   0  0  0  0  0  0  0  0  0  0  0  0
  1  2  1  0  0  0  0
  1 16  2  0  0  0  0
  2  3  2  0  0  0  0
  2  6  1  0  0  0  0
  3  7  1  0  0  0  0
  3 17  1  0  0  0  0
  4 13  1  0  0  0  0
  4 20  1  0  0  0  0
  4 21  2  0  0  0  0
  5 15  1  0  0  0  0
  5 19  1  0  0  0  0
  5 22  2  0  0  0  0
  6 14  1  0  0  0  0
  7  8  1  0  0  0  0
  8 14  1  0  0  0  0
  9 11  1  0  0  0  0
  9 13  1  0  0  0  0
 10 12  1  0  0  0  0
 10 13  1  0  0  0  0
 11 18  1  0  0  0  0
 12 18  1  0  0  0  0
 14 20  1  0  0  0  0
 15 18  1  0  0  0  0
 16 17  1  0  0  0  0
  1 23  1  0  0  0  0
  6 24  1  0  0  0  0
  6 25  1  0  0  0  0
  7 26  1  0  0  0  0
  7 27  1  0  0  0  0
  8 28  1  0  0  0  0
  8 29  1  0  0  0  0
  9 30  1  0  0  0  0
  9 31  1  0  0  0  0
 10 32  1  0  0  0  0
 10 33  1  0  0  0  0
 11 34  1  0  0  0  0
 11 35  1  0  0  0  0
 12 36  1  0  0  0  0
 12 37  1  0  0  0  0
 13 38  1  0  0  0  0
 14 39  1  0  0  0  0
 15 40  1  0  0  0  0
 15 41  1  0  0  0  0
 17 42  1  0  0  0  0
 19 43  1  0  0  0  0
 19 44  1  0  0  0  0
 20 45  1  0  0  0  0
M  END
> <FRED Chemgauss4 score>
-9.829855

$$$$
C89483857	P139880504
  -OEChem-05122015073D

 41 43  0     1  0  0  0  0  0999 V2000
   61.9322  163.4223   -6.0940 C   0  0  0  0  0  0  0  0  0  0  0  0
   61.1318  162.3302   -6.4347 C   0  0  0  0  0  0  0  0  0  0  0  0
   60.9973  163.4495   -3.8667 C   0  0  0  0  0  0  0  0  0  0  0  0
   59.2142  161.6350   -3.3801 C   0  0  0  0  0  0  0  0  0  0  0  0
   60.1724  162.3425   -4.1810 C   0  0  0  0  0  0  0  0  0  0  0  0
   61.8674  163.9776   -4.8240 C   0  0  0  0  0  0  0  0  0  0  0  0
   60.2557  161.8002   -5.4671 C   0  0  0  0  0  0  0  0  0  0  0  0
   58.6097  160.6023   -4.0567 C   0  0  0  0  0  0  0  0  0  0  0  0
   57.5760  159.6519   -3.5717 C   0  0  0  0  0  0  0  0  0  0  0  0
   56.8423  154.6001   -5.7851 C   0  0  0  0  0  0  0  0  0  0  0  0
   57.1737  156.0887   -5.7907 C   0  0  0  0  0  0  0  0  0  0  0  0
   55.6705  154.4803   -4.8266 C   0  0  0  0  0  0  0  0  0  0  0  0
   55.8810  156.8259   -5.3832 C   0  0  1  0  0  0  0  0  0  0  0  0
   54.8342  155.7107   -5.1694 C   0  0  2  0  0  0  0  0  0  0  0  0
   56.1319  157.7265   -4.1747 C   0  0  0  0  0  0  0  0  0  0  0  0
   53.7430  155.9836   -4.1462 C   0  0  0  0  0  0  0  0  0  0  0  0
   62.6825  165.0818   -4.4955 N   0  0  0  0  0  0  0  0  0  0  0  0
   57.1359  158.6914   -4.4842 N   0  0  0  0  0  0  0  0  0  0  0  0
   57.1497  159.7627   -2.4252 O   0  0  0  0  0  0  0  0  0  0  0  0
   53.0356  157.1422   -4.5449 O   0  0  0  0  0  0  0  0  0  0  0  0
   59.1803  160.4657   -5.6570 S   0  0  0  0  0  0  0  0  0  0  0  0
   62.6085  163.8322   -6.8409 H   0  0  0  0  0  0  0  0  0  0  0  0
   61.1890  161.9020   -7.4314 H   0  0  0  0  0  0  0  0  0  0  0  0
   60.9491  163.8880   -2.8721 H   0  0  0  0  0  0  0  0  0  0  0  0
   58.9863  161.8830   -2.3502 H   0  0  0  0  0  0  0  0  0  0  0  0
   56.5790  154.2408   -6.7775 H   0  0  0  0  0  0  0  0  0  0  0  0
   57.6973  154.0276   -5.4288 H   0  0  0  0  0  0  0  0  0  0  0  0
   57.9849  156.2933   -5.0783 H   0  0  0  0  0  0  0  0  0  0  0  0
   57.5225  156.4236   -6.7763 H   0  0  0  0  0  0  0  0  0  0  0  0
   55.1054  153.5795   -5.0568 H   0  0  0  0  0  0  0  0  0  0  0  0
   55.9828  154.4420   -3.7897 H   0  0  0  0  0  0  0  0  0  0  0  0
   55.5665  157.4520   -6.2108 H   0  0  0  0  0  0  0  0  0  0  0  0
   54.3070  155.5215   -6.1535 H   0  0  0  0  0  0  0  0  0  0  0  0
   56.4698  157.1176   -3.3438 H   0  0  0  0  0  0  0  0  0  0  0  0
   55.2143  158.2415   -3.9148 H   0  0  0  0  0  0  0  0  0  0  0  0
   54.1891  156.1503   -3.1670 H   0  0  0  0  0  0  0  0  0  0  0  0
   53.0585  155.1380   -4.1024 H   0  0  0  0  0  0  0  0  0  0  0  0
   63.3351  165.4236   -5.1711 H   0  0  0  0  0  0  0  0  0  0  0  0
   62.6608  165.4427   -3.5636 H   0  0  0  0  0  0  0  0  0  0  0  0
   57.5026  158.7136   -5.4394 H   0  0  0  0  0  0  0  0  0  0  0  0
   52.3440  157.2991   -3.8791 H   0  0  0  0  0  0  0  0  0  0  0  0
  1  2  1  0  0  0  0
  1  6  2  0  0  0  0
  2  7  2  0  0  0  0
  3  5  2  0  0  0  0
  3  6  1  0  0  0  0
  4  5  1  0  0  0  0
  4  8  2  0  0  0  0
  5  7  1  0  0  0  0
  6 17  1  0  0  0  0
  7 21  1  0  0  0  0
  8  9  1  0  0  0  0
  8 21  1  0  0  0  0
  9 18  1  0  0  0  0
  9 19  2  0  0  0  0
 10 11  1  0  0  0  0
 10 12  1  0  0  0  0
 11 13  1  0  0  0  0
 12 14  1  0  0  0  0
 13 14  1  0  0  0  0
 13 15  1  0  0  0  0
 14 16  1  0  0  0  0
 15 18  1  0  0  0  0
 16 20  1  0  0  0  0
  1 22  1  0  0  0  0
  2 23  1  0  0  0  0
  3 24  1  0  0  0  0
  4 25  1  0  0  0  0
 10 26  1  0  0  0  0
 10 27  1  0  0  0  0
 11 28  1  0  0  0  0
 11 29  1  0  0  0  0
 12 30  1  0  0  0  0
 12 31  1  0  0  0  0
 13 32  1  0  0  0  0
 14 33  1  0  0  0  0
 15 34  1  0  0  0  0
 15 35  1  0  0  0  0
 16 36  1  0  0  0  0
 16 37  1  0  0  0  0
 17 38  1  0  0  0  0
 17 39  1  0  0  0  0
 18 40  1  0  0  0  0
 20 41  1  0  0  0  0
M  END
> <FRED Chemgauss4 score>
-9.767876

$$$$
C89021442	P139237345
  -OEChem-05122015073D

 40 41  0     1  0  0  0  0  0999 V2000
   59.2510  161.0288   -3.5601 C   0  0  0  0  0  0  0  0  0  0  0  0
   58.0526  160.3645   -3.9510 C   0  0  0  0  0  0  0  0  0  0  0  0
   59.3959  161.0715   -2.1909 C   0  0  0  0  0  0  0  0  0  0  0  0
   57.3273  159.9245   -2.8655 C   0  0  0  0  0  0  0  0  0  0  0  0
   55.9019  155.6431   -6.2586 C   0  0  0  0  0  0  0  0  0  0  0  0
   54.5633  155.1101   -6.7660 C   0  0  0  0  0  0  0  0  0  0  0  0
   55.9524  155.6608   -4.7353 C   0  0  0  0  0  0  0  0  0  0  0  0
   53.4881  155.8720   -4.6124 C   0  0  0  0  0  0  0  0  0  0  0  0
   53.3680  155.8447   -6.1415 C   0  0  1  0  0  0  0  0  0  0  0  0
   60.4941  161.6676   -1.3995 C   0  0  0  0  0  0  0  0  0  0  0  0
   56.0143  159.1827   -2.8523 C   0  0  0  0  0  0  0  0  0  0  0  0
   53.2060  157.2561   -6.7141 C   0  0  0  0  0  0  0  0  0  0  0  0
   56.2641  157.7723   -2.5894 N   0  5  0  0  0  0  0  0  0  0  0  0
   54.8037  156.4508   -4.2052 N   0  0  1  0  0  0  0  0  0  0  0  0
   51.8129  157.6976   -6.4996 N   0  3  0  0  0  0  0  0  0  0  0  0
   55.0273  155.6405   -1.8228 O   0  0  0  0  0  0  0  0  0  0  0  0
   53.7043  157.6699   -2.2853 O   0  0  0  0  0  0  0  0  0  0  0  0
   58.0907  160.3127   -1.3827 S   0  0  0  0  0  0  0  0  0  0  0  0
   54.9247  156.9049   -2.5570 S   0  0  0  0  0  0  0  0  0  0  0  0
   59.9685  161.4515   -4.2519 H   0  0  0  0  0  0  0  0  0  0  0  0
   57.7429  160.2175   -4.9779 H   0  0  0  0  0  0  0  0  0  0  0  0
   56.7118  155.0117   -6.6459 H   0  0  0  0  0  0  0  0  0  0  0  0
   56.0680  156.6545   -6.6467 H   0  0  0  0  0  0  0  0  0  0  0  0
   54.5289  155.2039   -7.8654 H   0  0  0  0  0  0  0  0  0  0  0  0
   54.4959  154.0308   -6.5495 H   0  0  0  0  0  0  0  0  0  0  0  0
   55.8894  154.6314   -4.3651 H   0  0  0  0  0  0  0  0  0  0  0  0
   56.8947  156.0974   -4.3835 H   0  0  0  0  0  0  0  0  0  0  0  0
   52.6751  156.4602   -4.1625 H   0  0  0  0  0  0  0  0  0  0  0  0
   53.4142  154.8458   -4.2260 H   0  0  0  0  0  0  0  0  0  0  0  0
   52.4520  155.2723   -6.3988 H   0  0  0  0  0  0  0  0  0  0  0  0
   60.2823  162.7221   -1.1631 H   0  0  0  0  0  0  0  0  0  0  0  0
   60.6519  161.1335   -0.4484 H   0  0  0  0  0  0  0  0  0  0  0  0
   61.4557  161.6285   -1.9370 H   0  0  0  0  0  0  0  0  0  0  0  0
   55.3483  159.6247   -2.1010 H   0  0  0  0  0  0  0  0  0  0  0  0
   55.5082  159.3266   -3.8147 H   0  0  0  0  0  0  0  0  0  0  0  0
   53.3948  157.2668   -7.7860 H   0  0  0  0  0  0  0  0  0  0  0  0
   53.8586  157.9619   -6.2036 H   0  0  0  0  0  0  0  0  0  0  0  0
   51.6323  158.5997   -6.9582 H   0  0  0  0  0  0  0  0  0  0  0  0
   51.6077  157.8114   -5.4987 H   0  0  0  0  0  0  0  0  0  0  0  0
   51.1427  157.0165   -6.8788 H   0  0  0  0  0  0  0  0  0  0  0  0
  1  2  1  0  0  0  0
  1  3  2  0  0  0  0
  2  4  2  0  0  0  0
  3 10  1  0  0  0  0
  3 18  1  0  0  0  0
  4 11  1  0  0  0  0
  4 18  1  0  0  0  0
  5  6  1  0  0  0  0
  5  7  1  0  0  0  0
  6  9  1  0  0  0  0
  7 14  1  0  0  0  0
  8  9  1  0  0  0  0
  8 14  1  0  0  0  0
  9 12  1  0  0  0  0
 11 13  1  0  0  0  0
 12 15  1  0  0  0  0
 13 19  1  0  0  0  0
 14 19  1  0  0  0  0
 16 19  2  0  0  0  0
 17 19  2  0  0  0  0
  1 20  1  0  0  0  0
  2 21  1  0  0  0  0
  5 22  1  0  0  0  0
  5 23  1  0  0  0  0
  6 24  1  0  0  0  0
  6 25  1  0  0  0  0
  7 26  1  0  0  0  0
  7 27  1  0  0  0  0
  8 28  1  0  0  0  0
  8 29  1  0  0  0  0
  9 30  1  0  0  0  0
 10 31  1  0  0  0  0
 10 32  1  0  0  0  0
 10 33  1  0  0  0  0
 11 34  1  0  0  0  0
 11 35  1  0  0  0  0
 12 36  1  0  0  0  0
 12 37  1  0  0  0  0
 15 38  1  0  0  0  0
 15 39  1  0  0  0  0
 15 40  1  0  0  0  0
M  CHG  2  13  -1  15   1
M  END
> <FRED Chemgauss4 score>
-9.690296

$$$$
C54140268	P81447142
  -OEChem-05122015073D

 39 39  0     1  0  0  0  0  0999 V2000
   59.3937  161.0374   -2.4399 C   0  0  0  0  0  0  0  0  0  0  0  0
   58.8925  160.4681   -3.7604 C   0  0  0  0  0  0  0  0  0  0  0  0
   58.7385  160.3178   -1.2661 C   0  0  0  0  0  0  0  0  0  0  0  0
   57.3728  160.5179   -3.8339 C   0  0  0  0  0  0  0  0  0  0  0  0
   57.2043  160.3563   -1.3555 C   0  0  2  0  0  0  0  0  0  0  0  0
   56.6194  159.5801   -0.1767 C   0  0  0  0  0  0  0  0  0  0  0  0
   55.5957  154.7894   -4.8826 C   0  0  0  0  0  0  0  0  0  0  0  0
   55.3397  157.1041   -3.9292 C   0  0  0  0  0  0  0  0  0  0  0  0
   54.1865  156.4748   -6.1548 C   0  0  0  0  0  0  0  0  0  0  0  0
   55.3959  156.2705   -5.2268 C   0  0  2  0  0  0  0  0  0  0  0  0
   55.1682  158.5224   -4.2123 N   0  5  0  0  0  0  0  0  0  0  0  0
   56.7767  159.7698   -2.6798 N   0  0  1  0  0  0  0  0  0  0  0  0
   52.9251  155.9923   -5.5445 N   0  3  0  0  0  0  0  0  0  0  0  0
   54.4586  160.7091   -3.0390 O   0  0  0  0  0  0  0  0  0  0  0  0
   54.7348  158.6740   -1.6736 O   0  0  0  0  0  0  0  0  0  0  0  0
   55.1072  159.4056   -2.8858 S   0  0  0  0  0  0  0  0  0  0  0  0
   60.4828  160.9338   -2.3790 H   0  0  0  0  0  0  0  0  0  0  0  0
   59.1679  162.1095   -2.3887 H   0  0  0  0  0  0  0  0  0  0  0  0
   59.3229  161.0331   -4.5948 H   0  0  0  0  0  0  0  0  0  0  0  0
   59.2328  159.4301   -3.8622 H   0  0  0  0  0  0  0  0  0  0  0  0
   59.0852  159.2760   -1.2492 H   0  0  0  0  0  0  0  0  0  0  0  0
   59.0717  160.7810   -0.3297 H   0  0  0  0  0  0  0  0  0  0  0  0
   57.0163  161.5544   -3.8224 H   0  0  0  0  0  0  0  0  0  0  0  0
   57.0518  160.0539   -4.7731 H   0  0  0  0  0  0  0  0  0  0  0  0
   56.8616  161.3978   -1.3070 H   0  0  0  0  0  0  0  0  0  0  0  0
   56.9533  158.5447   -0.2150 H   0  0  0  0  0  0  0  0  0  0  0  0
   55.5320  159.6065   -0.2213 H   0  0  0  0  0  0  0  0  0  0  0  0
   56.9494  160.0275    0.7593 H   0  0  0  0  0  0  0  0  0  0  0  0
   54.7530  154.3863   -4.3118 H   0  0  0  0  0  0  0  0  0  0  0  0
   56.5085  154.6447   -4.2953 H   0  0  0  0  0  0  0  0  0  0  0  0
   55.6922  154.1927   -5.7962 H   0  0  0  0  0  0  0  0  0  0  0  0
   54.4987  156.7478   -3.3199 H   0  0  0  0  0  0  0  0  0  0  0  0
   56.2377  156.9286   -3.3252 H   0  0  0  0  0  0  0  0  0  0  0  0
   54.3018  155.9362   -7.1003 H   0  0  0  0  0  0  0  0  0  0  0  0
   54.0366  157.5360   -6.3787 H   0  0  0  0  0  0  0  0  0  0  0  0
   56.2833  156.5853   -5.7945 H   0  0  0  0  0  0  0  0  0  0  0  0
   52.1100  156.3229   -6.0730 H   0  0  0  0  0  0  0  0  0  0  0  0
   52.8315  156.3280   -4.5792 H   0  0  0  0  0  0  0  0  0  0  0  0
   52.8935  154.9668   -5.5258 H   0  0  0  0  0  0  0  0  0  0  0  0
  1  2  1  0  0  0  0
  1  3  1  0  0  0  0
  2  4  1  0  0  0  0
  3  5  1  0  0  0  0
  4 12  1  0  0  0  0
  5  6  1  0  0  0  0
  5 12  1  0  0  0  0
  7 10  1  0  0  0  0
  8 10  1  0  0  0  0
  8 11  1  0  0  0  0
  9 10  1  0  0  0  0
  9 13  1  0  0  0  0
 11 16  1  0  0  0  0
 12 16  1  0  0  0  0
 14 16  2  0  0  0  0
 15 16  2  0  0  0  0
  1 17  1  0  0  0  0
  1 18  1  0  0  0  0
  2 19  1  0  0  0  0
  2 20  1  0  0  0  0
  3 21  1  0  0  0  0
  3 22  1  0  0  0  0
  4 23  1  0  0  0  0
  4 24  1  0  0  0  0
  5 25  1  0  0  0  0
  6 26  1  0  0  0  0
  6 27  1  0  0  0  0
  6 28  1  0  0  0  0
  7 29  1  0  0  0  0
  7 30  1  0  0  0  0
  7 31  1  0  0  0  0
  8 32  1  0  0  0  0
  8 33  1  0  0  0  0
  9 34  1  0  0  0  0
  9 35  1  0  0  0  0
 10 36  1  0  0  0  0
 13 37  1  0  0  0  0
 13 38  1  0  0  0  0
 13 39  1  0  0  0  0
M  CHG  2  11  -1  13   1
M  END
> <FRED Chemgauss4 score>
-9.579684

$$$$
C51113450	P76540547
  -OEChem-05122015073D

 35 36  0     0  0  0  0  0  0999 V2000
   59.3827  161.6095   -2.4069 C   0  0  0  0  0  0  0  0  0  0  0  0
   57.6177  161.2680   -4.0210 C   0  0  0  0  0  0  0  0  0  0  0  0
   60.2454  161.9970   -3.4322 C   0  0  0  0  0  0  0  0  0  0  0  0
   58.4804  161.6555   -5.0463 C   0  0  0  0  0  0  0  0  0  0  0  0
   54.0880  157.3851   -4.6417 C   0  0  0  0  0  0  0  0  0  0  0  0
   56.3217  156.5213   -4.4206 C   0  0  0  0  0  0  0  0  0  0  0  0
   55.2996  157.3442   -3.9608 C   0  0  0  0  0  0  0  0  0  0  0  0
   58.0688  161.2450   -2.7013 C   0  0  0  0  0  0  0  0  0  0  0  0
   59.7943  162.0200   -4.7519 C   0  0  0  0  0  0  0  0  0  0  0  0
   53.9500  156.5903   -5.7682 C   0  0  0  0  0  0  0  0  0  0  0  0
   56.0837  155.7650   -5.5569 C   0  0  0  0  0  0  0  0  0  0  0  0
   55.5014  158.1767   -2.7469 C   0  0  0  0  0  0  0  0  0  0  0  0
   57.1455  160.8322   -1.6052 C   0  0  0  0  0  0  0  0  0  0  0  0
   57.1713  159.3261   -1.3165 C   0  0  0  0  0  0  0  0  0  0  0  0
   54.9201  155.7784   -6.2451 N   0  0  0  0  0  0  0  0  0  0  0  0
   51.7945  157.6332   -6.2020 N   0  0  0  0  0  0  0  0  0  0  0  0
   52.7102  156.6429   -6.4521 N   0  0  0  0  0  0  0  0  0  0  0  0
   56.8126  158.5426   -2.4682 N   0  0  0  0  0  0  0  0  0  0  0  0
   54.5308  158.4758   -2.0563 O   0  0  0  0  0  0  0  0  0  0  0  0
   60.8586  162.4982   -6.0164 Cl  0  0  0  0  0  0  0  0  0  0  0  0
   57.2861  154.7214   -6.1967 Cl  0  0  0  0  0  0  0  0  0  0  0  0
   59.7417  161.5939   -1.3812 H   0  0  0  0  0  0  0  0  0  0  0  0
   56.5954  160.9857   -4.2588 H   0  0  0  0  0  0  0  0  0  0  0  0
   61.2663  162.2787   -3.1876 H   0  0  0  0  0  0  0  0  0  0  0  0
   58.1150  161.6686   -6.0699 H   0  0  0  0  0  0  0  0  0  0  0  0
   53.2777  158.0216   -4.2985 H   0  0  0  0  0  0  0  0  0  0  0  0
   57.2751  156.4747   -3.9033 H   0  0  0  0  0  0  0  0  0  0  0  0
   56.1138  161.1204   -1.8682 H   0  0  0  0  0  0  0  0  0  0  0  0
   57.3720  161.3852   -0.6774 H   0  0  0  0  0  0  0  0  0  0  0  0
   58.1762  159.0095   -1.0199 H   0  0  0  0  0  0  0  0  0  0  0  0
   56.4788  159.0640   -0.5099 H   0  0  0  0  0  0  0  0  0  0  0  0
   50.8725  157.2035   -6.1433 H   0  0  0  0  0  0  0  0  0  0  0  0
   51.7632  158.2564   -7.0079 H   0  0  0  0  0  0  0  0  0  0  0  0
   52.6028  156.0678   -7.2718 H   0  0  0  0  0  0  0  0  0  0  0  0
   57.5696  158.2011   -3.0567 H   0  0  0  0  0  0  0  0  0  0  0  0
  1  3  1  0  0  0  0
  1  8  2  0  0  0  0
  2  4  2  0  0  0  0
  2  8  1  0  0  0  0
  3  9  2  0  0  0  0
  4  9  1  0  0  0  0
  5  7  1  0  0  0  0
  5 10  2  0  0  0  0
  6  7  2  0  0  0  0
  6 11  1  0  0  0  0
  7 12  1  0  0  0  0
  8 13  1  0  0  0  0
  9 20  1  0  0  0  0
 10 15  1  0  0  0  0
 10 17  1  0  0  0  0
 11 15  2  0  0  0  0
 11 21  1  0  0  0  0
 12 18  1  0  0  0  0
 12 19  2  0  0  0  0
 13 14  1  0  0  0  0
 14 18  1  0  0  0  0
 16 17  1  0  0  0  0
  1 22  1  0  0  0  0
  2 23  1  0  0  0  0
  3 24  1  0  0  0  0
  4 25  1  0  0  0  0
  5 26  1  0  0  0  0
  6 27  1  0  0  0  0
 13 28  1  0  0  0  0
 13 29  1  0  0  0  0
 14 30  1  0  0  0  0
 14 31  1  0  0  0  0
 16 32  1  0  0  0  0
 16 33  1  0  0  0  0
 17 34  1  0  0  0  0
 18 35  1  0  0  0  0
M  END
> <FRED Chemgauss4 score>
-9.563847

$$$$
Y-4-FBP	P10000005
  -OEChem-05122015073D

 40 42  0     1  0  0  0  0  0999 V2000
   64.1846  155.9062   -8.7788 C   0  0  0  0  0  0  0  0  0  0  0  0
   63.4006  156.9745   -8.3433 C   0  0  0  0  0  0  0  0  0  0  0  0
   63.6270  154.6326   -8.8923 C   0  0  0  0  0  0  0  0  0  0  0  0
   62.0590  156.7693   -8.0211 C   0  0  0  0  0  0  0  0  0  0  0  0
   62.2855  154.4274   -8.5701 C   0  0  0  0  0  0  0  0  0  0  0  0
   59.6922  154.0478   -7.3057 C   0  0  0  0  0  0  0  0  0  0  0  0
   59.1860  156.3139   -7.9730 C   0  0  0  0  0  0  0  0  0  0  0  0
   58.3506  153.8430   -6.9835 C   0  0  0  0  0  0  0  0  0  0  0  0
   57.8444  156.1091   -7.6508 C   0  0  0  0  0  0  0  0  0  0  0  0
   61.5014  155.4957   -8.1345 C   0  0  0  0  0  0  0  0  0  0  0  0
   60.1099  155.2833   -7.8005 C   0  0  0  0  0  0  0  0  0  0  0  0
   57.4267  154.8736   -7.1560 C   0  0  0  0  0  0  0  0  0  0  0  0
   54.1294  156.1033   -2.8542 C   0  0  0  0  0  0  0  0  0  0  0  0
   55.5525  156.2467   -4.8800 C   0  0  0  0  0  0  0  0  0  0  0  0
   53.7810  155.8436   -6.4022 C   0  0  0  0  0  0  0  0  0  0  0  0
   54.5422  155.3931   -4.1221 C   0  0  2  0  0  0  0  0  0  0  0  0
   55.2964  155.9430   -6.3535 C   0  0  2  0  0  0  0  0  0  0  0  0
   55.9773  154.6525   -6.8076 C   0  0  0  0  0  0  0  0  0  0  0  0
   53.4176  155.1850   -5.1052 N   0  3  0  0  0  0  0  0  0  0  0  0
   53.6409  157.2558   -3.0165 O   0  5  0  0  0  0  0  0  0  0  0  0
   54.3276  155.4492   -1.7921 O   0  0  0  0  0  0  0  0  0  0  0  0
   65.2286  156.0666   -9.0312 H   0  0  0  0  0  0  0  0  0  0  0  0
   63.8341  157.9665   -8.2565 H   0  0  0  0  0  0  0  0  0  0  0  0
   64.2365  153.8006   -9.2327 H   0  0  0  0  0  0  0  0  0  0  0  0
   61.4609  157.6124   -7.6833 H   0  0  0  0  0  0  0  0  0  0  0  0
   61.8645  153.4292   -8.6640 H   0  0  0  0  0  0  0  0  0  0  0  0
   60.4004  153.2347   -7.1650 H   0  0  0  0  0  0  0  0  0  0  0  0
   59.4960  157.2824   -8.3583 H   0  0  0  0  0  0  0  0  0  0  0  0
   58.0343  152.8775   -6.5976 H   0  0  0  0  0  0  0  0  0  0  0  0
   57.1312  156.9176   -7.7889 H   0  0  0  0  0  0  0  0  0  0  0  0
   55.4614  157.3210   -4.6680 H   0  0  0  0  0  0  0  0  0  0  0  0
   56.5728  155.9467   -4.5965 H   0  0  0  0  0  0  0  0  0  0  0  0
   53.2741  156.8136   -6.4512 H   0  0  0  0  0  0  0  0  0  0  0  0
   53.4212  155.1865   -7.2039 H   0  0  0  0  0  0  0  0  0  0  0  0
   54.9518  154.4060   -3.8747 H   0  0  0  0  0  0  0  0  0  0  0  0
   55.6392  156.7671   -6.9708 H   0  0  0  0  0  0  0  0  0  0  0  0
   55.4493  154.2384   -7.6762 H   0  0  0  0  0  0  0  0  0  0  0  0
   55.9005  153.8931   -6.0189 H   0  0  0  0  0  0  0  0  0  0  0  0
   52.5452  155.5896   -4.7377 H   0  0  0  0  0  0  0  0  0  0  0  0
   53.2329  154.1824   -5.2474 H   0  0  0  0  0  0  0  0  0  0  0  0
  1  2  1  0  0  0  0
  1  3  2  0  0  0  0
  2  4  2  0  0  0  0
  3  5  1  0  0  0  0
  4 10  1  0  0  0  0
  5 10  2  0  0  0  0
  6  8  2  0  0  0  0
  6 11  1  0  0  0  0
  7  9  1  0  0  0  0
  7 11  2  0  0  0  0
  8 12  1  0  0  0  0
  9 12  2  0  0  0  0
 10 11  1  0  0  0  0
 12 18  1  0  0  0  0
 13 16  1  0  0  0  0
 13 20  1  0  0  0  0
 13 21  2  0  0  0  0
 14 16  1  0  0  0  0
 14 17  1  0  0  0  0
 15 17  1  0  0  0  0
 15 19  1  0  0  0  0
 16 19  1  0  0  0  0
 17 18  1  0  0  0  0
  1 22  1  0  0  0  0
  2 23  1  0  0  0  0
  3 24  1  0  0  0  0
  4 25  1  0  0  0  0
  5 26  1  0  0  0  0
  6 27  1  0  0  0  0
  7 28  1  0  0  0  0
  8 29  1  0  0  0  0
  9 30  1  0  0  0  0
 14 31  1  0  0  0  0
 14 32  1  0  0  0  0
 15 33  1  0  0  0  0
 15 34  1  0  0  0  0
 16 35  1  0  0  0  0
 17 36  1  0  0  0  0
 18 37  1  0  0  0  0
 18 38  1  0  0  0  0
 19 39  1  0  0  0  0
 19 40  1  0  0  0  0
M  CHG  2  19   1  20  -1
M  END
> <FRED Chemgauss4 score>
-9.563582

$$$$
C80443901	P125616329
  -OEChem-05122015073D

 35 36  0     1  0  0  0  0  0999 V2000
   56.1448  163.4902   -2.5620 C   0  0  0  0  0  0  0  0  0  0  0  0
   56.8586  164.5854   -3.2025 C   0  0  0  0  0  0  0  0  0  0  0  0
   56.6617  162.2519   -2.4911 C   0  0  0  0  0  0  0  0  0  0  0  0
   58.0717  164.4477   -3.7654 C   0  0  0  0  0  0  0  0  0  0  0  0
   57.9502  162.0152   -3.0651 C   0  0  0  0  0  0  0  0  0  0  0  0
   58.7608  160.9539   -3.1858 C   0  0  0  0  0  0  0  0  0  0  0  0
   58.6869  163.1139   -3.7183 C   0  0  0  0  0  0  0  0  0  0  0  0
   57.8147  158.7756   -3.7845 C   0  0  0  0  0  0  0  0  0  0  0  0
   54.4103  156.7394   -2.7234 C   0  0  0  0  0  0  0  0  0  0  0  0
   54.3072  159.0622   -4.7024 C   0  0  0  0  0  0  0  0  0  0  0  0
   60.0326  161.3172   -3.9098 C   0  0  0  0  0  0  0  0  0  0  0  0
   58.5401  159.5627   -2.7101 C   0  0  0  0  0  0  0  0  0  0  0  0
   55.1418  156.7940   -4.0704 C   0  0  0  0  0  0  0  0  0  0  0  0
   55.5322  158.1779   -4.5745 C   0  0  2  0  0  0  0  0  0  0  0  0
   59.8191  162.7496   -4.1817 N   0  3  0  0  0  0  0  0  0  0  0  0
   56.4363  158.8444   -3.6648 N   0  0  0  0  0  0  0  0  0  0  0  0
   54.1485  155.5672   -2.3256 O   0  5  0  0  0  0  0  0  0  0  0  0
   58.4199  158.1549   -4.6570 O   0  0  0  0  0  0  0  0  0  0  0  0
   54.1493  157.8455   -2.1764 O   0  0  0  0  0  0  0  0  0  0  0  0
   54.1012  160.0807   -4.0551 O   0  0  0  0  0  0  0  0  0  0  0  0
   53.4624  158.6214   -5.6714 O   0  0  0  0  0  0  0  0  0  0  0  0
   55.1703  163.7075   -2.1380 H   0  0  0  0  0  0  0  0  0  0  0  0
   56.3639  165.5516   -3.2124 H   0  0  0  0  0  0  0  0  0  0  0  0
   56.1215  161.4447   -2.0118 H   0  0  0  0  0  0  0  0  0  0  0  0
   58.5901  165.2721   -4.2381 H   0  0  0  0  0  0  0  0  0  0  0  0
   60.9225  161.2133   -3.2840 H   0  0  0  0  0  0  0  0  0  0  0  0
   60.1424  160.7967   -4.8644 H   0  0  0  0  0  0  0  0  0  0  0  0
   57.9136  159.5612   -1.8121 H   0  0  0  0  0  0  0  0  0  0  0  0
   59.5007  159.1073   -2.4514 H   0  0  0  0  0  0  0  0  0  0  0  0
   54.4817  156.3110   -4.8029 H   0  0  0  0  0  0  0  0  0  0  0  0
   56.0369  156.1618   -3.9933 H   0  0  0  0  0  0  0  0  0  0  0  0
   56.0493  158.1384   -5.5392 H   0  0  0  0  0  0  0  0  0  0  0  0
   60.4481  163.3940   -4.6621 H   0  0  0  0  0  0  0  0  0  0  0  0
   56.0430  159.3882   -2.9028 H   0  0  0  0  0  0  0  0  0  0  0  0
   52.6687  159.1788   -5.8195 H   0  0  0  0  0  0  0  0  0  0  0  0
  1  2  1  0  0  0  0
  1  3  2  0  0  0  0
  2  4  2  0  0  0  0
  3  5  1  0  0  0  0
  4  7  1  0  0  0  0
  5  6  2  0  0  0  0
  5  7  1  0  0  0  0
  6 11  1  0  0  0  0
  6 12  1  0  0  0  0
  7 15  2  0  0  0  0
  8 12  1  0  0  0  0
  8 16  1  0  0  0  0
  8 18  2  0  0  0  0
  9 13  1  0  0  0  0
  9 17  1  0  0  0  0
  9 19  2  0  0  0  0
 10 14  1  0  0  0  0
 10 20  2  0  0  0  0
 10 21  1  0  0  0  0
 11 15  1  0  0  0  0
 13 14  1  0  0  0  0
 14 16  1  0  0  0  0
  1 22  1  0  0  0  0
  2 23  1  0  0  0  0
  3 24  1  0  0  0  0
  4 25  1  0  0  0  0
 11 26  1  0  0  0  0
 11 27  1  0  0  0  0
 12 28  1  0  0  0  0
 12 29  1  0  0  0  0
 13 30  1  0  0  0  0
 13 31  1  0  0  0  0
 14 32  1  0  0  0  0
 15 33  1  0  0  0  0
 16 34  1  0  0  0  0
 21 35  1  0  0  0  0
M  CHG  2  15   1  17  -1
M  END
> <FRED Chemgauss4 score>
-9.364138

$$$$
C70037314	P107964016
  -OEChem-05122015073D

 46 48  0     1  0  0  0  0  0999 V2000
   55.7079  156.5864   -4.6800 C   0  0  0  0  0  0  0  0  0  0  0  0
   56.2174  162.8766   -3.3985 C   0  0  0  0  0  0  0  0  0  0  0  0
   56.7477  162.1401   -4.4314 C   0  0  0  0  0  0  0  0  0  0  0  0
   54.0071  155.8793   -6.0975 C   0  0  0  0  0  0  0  0  0  0  0  0
   54.3347  156.2277   -4.8057 C   0  0  0  0  0  0  0  0  0  0  0  0
   56.3777  156.4981   -5.8806 C   0  0  0  0  0  0  0  0  0  0  0  0
   57.4529  161.4095   -2.4755 C   0  0  0  0  0  0  0  0  0  0  0  0
   53.3732  156.2180   -3.7351 C   0  0  0  0  0  0  0  0  0  0  0  0
   57.7930  156.7801   -6.1711 C   0  0  0  0  0  0  0  0  0  0  0  0
   59.8931  159.8320   -6.5548 C   0  0  0  0  0  0  0  0  0  0  0  0
   59.4487  160.7595   -5.4212 C   0  0  0  0  0  0  0  0  0  0  0  0
   59.6806  158.3637   -6.2132 C   0  0  0  0  0  0  0  0  0  0  0  0
   57.4762  159.1572   -5.3309 C   0  0  0  0  0  0  0  0  0  0  0  0
   58.3508  160.1397   -4.5353 C   0  0  2  0  0  0  0  0  0  0  0  0
   57.4292  160.3961   -0.1677 C   0  0  0  0  0  0  0  0  0  0  0  0
   59.6139  161.0880   -1.2182 C   0  0  0  0  0  0  0  0  0  0  0  0
   58.1853  160.5710   -1.5047 C   0  0  0  0  0  0  0  0  0  0  0  0
   56.6605  162.4169   -2.1836 N   0  0  0  0  0  0  0  0  0  0  0  0
   57.5373  161.2044   -3.8246 N   0  0  0  0  0  0  0  0  0  0  0  0
   58.2755  158.0701   -5.9218 N   0  0  0  0  0  0  0  0  0  0  0  0
   52.0588  155.8387   -4.0280 N   0  0  0  0  0  0  0  0  0  0  0  0
   53.6766  156.5521   -2.5677 O   0  0  0  0  0  0  0  0  0  0  0  0
   58.4586  155.8494   -6.6234 O   0  0  0  0  0  0  0  0  0  0  0  0
   55.3520  155.9850   -7.1522 S   0  0  0  0  0  0  0  0  0  0  0  0
   56.1809  156.8937   -3.7550 H   0  0  0  0  0  0  0  0  0  0  0  0
   55.5392  163.7144   -3.4679 H   0  0  0  0  0  0  0  0  0  0  0  0
   56.6352  162.1996   -5.5050 H   0  0  0  0  0  0  0  0  0  0  0  0
   53.0447  155.5667   -6.4792 H   0  0  0  0  0  0  0  0  0  0  0  0
   59.3481  160.0846   -7.4758 H   0  0  0  0  0  0  0  0  0  0  0  0
   60.9603  160.0084   -6.7605 H   0  0  0  0  0  0  0  0  0  0  0  0
   60.3237  161.0296   -4.8018 H   0  0  0  0  0  0  0  0  0  0  0  0
   59.0883  161.7130   -5.8519 H   0  0  0  0  0  0  0  0  0  0  0  0
   59.9808  157.7219   -7.0575 H   0  0  0  0  0  0  0  0  0  0  0  0
   60.3198  158.0842   -5.3621 H   0  0  0  0  0  0  0  0  0  0  0  0
   56.6760  158.7632   -4.6855 H   0  0  0  0  0  0  0  0  0  0  0  0
   56.9641  159.6718   -6.1630 H   0  0  0  0  0  0  0  0  0  0  0  0
   58.8420  159.5929   -3.6901 H   0  0  0  0  0  0  0  0  0  0  0  0
   57.2422  161.3617    0.3148 H   0  0  0  0  0  0  0  0  0  0  0  0
   57.9877  159.7737    0.5400 H   0  0  0  0  0  0  0  0  0  0  0  0
   56.4593  159.9171   -0.3425 H   0  0  0  0  0  0  0  0  0  0  0  0
   59.5733  162.1075   -0.8186 H   0  0  0  0  0  0  0  0  0  0  0  0
   60.2313  161.1069   -2.1229 H   0  0  0  0  0  0  0  0  0  0  0  0
   60.1253  160.4602   -0.4803 H   0  0  0  0  0  0  0  0  0  0  0  0
   58.3201  159.5419   -1.9026 H   0  0  0  0  0  0  0  0  0  0  0  0
   51.8216  155.5829   -4.9803 H   0  0  0  0  0  0  0  0  0  0  0  0
   51.3354  155.8118   -3.3167 H   0  0  0  0  0  0  0  0  0  0  0  0
  1  5  1  0  0  0  0
  1  6  2  0  0  0  0
  2  3  2  0  0  0  0
  2 18  1  0  0  0  0
  3 19  1  0  0  0  0
  4  5  2  0  0  0  0
  4 24  1  0  0  0  0
  5  8  1  0  0  0  0
  6  9  1  0  0  0  0
  6 24  1  0  0  0  0
  7 17  1  0  0  0  0
  7 18  2  0  0  0  0
  7 19  1  0  0  0  0
  8 21  1  0  0  0  0
  8 22  2  0  0  0  0
  9 20  1  0  0  0  0
  9 23  2  0  0  0  0
 10 11  1  0  0  0  0
 10 12  1  0  0  0  0
 11 14  1  0  0  0  0
 12 20  1  0  0  0  0
 13 14  1  0  0  0  0
 13 20  1  0  0  0  0
 14 19  1  0  0  0  0
 15 17  1  0  0  0  0
 16 17  1  0  0  0  0
  1 25  1  0  0  0  0
  2 26  1  0  0  0  0
  3 27  1  0  0  0  0
  4 28  1  0  0  0  0
 10 29  1  0  0  0  0
 10 30  1  0  0  0  0
 11 31  1  0  0  0  0
 11 32  1  0  0  0  0
 12 33  1  0  0  0  0
 12 34  1  0  0  0  0
 13 35  1  0  0  0  0
 13 36  1  0  0  0  0
 14 37  1  0  0  0  0
 15 38  1  0  0  0  0
 15 39  1  0  0  0  0
 15 40  1  0  0  0  0
 16 41  1  0  0  0  0
 16 42  1  0  0  0  0
 16 43  1  0  0  0  0
 17 44  1  0  0  0  0
 21 45  1  0  0  0  0
 21 46  1  0  0  0  0
M  END
> <FRED Chemgauss4 score>
-9.350765

$$$$
C75848109	P118209303
  -OEChem-05122015073D

 18 18  0     0  0  0  0  0  0999 V2000
   55.4654  154.1381   -5.6304 C   0  0  0  0  0  0  0  0  0  0  0  0
   55.3069  155.3225   -6.3106 C   0  0  0  0  0  0  0  0  0  0  0  0
   53.7095  155.0284   -4.8212 C   0  0  0  0  0  0  0  0  0  0  0  0
   52.5406  155.2510   -4.0316 C   0  0  0  0  0  0  0  0  0  0  0  0
   53.5969  157.1436   -6.1737 C   0  0  0  0  0  0  0  0  0  0  0  0
   54.4676  153.9608   -4.7049 N   0  0  0  0  0  0  0  0  0  0  0  0
   54.1777  155.8814   -5.7816 N   0  0  0  0  0  0  0  0  0  0  0  0
   52.6338  155.3233   -2.6779 N   0  0  0  0  0  0  0  0  0  0  0  0
   51.3298  155.3895   -4.6291 N   0  3  0  0  0  0  0  0  0  0  0  0
   53.8247  155.1783   -1.9178 O   0  5  0  0  0  0  0  0  0  0  0  0
   56.2472  153.4041   -5.7601 H   0  0  0  0  0  0  0  0  0  0  0  0
   55.8790  155.7974   -7.0955 H   0  0  0  0  0  0  0  0  0  0  0  0
   52.8849  156.9511   -6.9805 H   0  0  0  0  0  0  0  0  0  0  0  0
   53.0898  157.5934   -5.3155 H   0  0  0  0  0  0  0  0  0  0  0  0
   54.3895  157.8159   -6.5140 H   0  0  0  0  0  0  0  0  0  0  0  0
   51.8018  155.4815   -2.1204 H   0  0  0  0  0  0  0  0  0  0  0  0
   51.2190  155.3455   -5.6362 H   0  0  0  0  0  0  0  0  0  0  0  0
   50.5035  155.5522   -4.0645 H   0  0  0  0  0  0  0  0  0  0  0  0
  1  2  2  0  0  0  0
  1  6  1  0  0  0  0
  2  7  1  0  0  0  0
  3  4  1  0  0  0  0
  3  6  2  0  0  0  0
  3  7  1  0  0  0  0
  4  8  1  0  0  0  0
  4  9  2  0  0  0  0
  5  7  1  0  0  0  0
  8 10  1  0  0  0  0
  1 11  1  0  0  0  0
  2 12  1  0  0  0  0
  5 13  1  0  0  0  0
  5 14  1  0  0  0  0
  5 15  1  0  0  0  0
  8 16  1  0  0  0  0
  9 17  1  0  0  0  0
  9 18  1  0  0  0  0
M  CHG  2   9   1  10  -1
M  END
> <FRED Chemgauss4 score>
-9.327024

$$$$
C91548579	P143269050
  -OEChem-05122015073D

 55 57  0     1  0  0  0  0  0999 V2000
   55.1255  156.6703   -4.4688 C   0  0  0  0  0  0  0  0  0  0  0  0
   54.9123  157.2534   -3.2053 C   0  0  0  0  0  0  0  0  0  0  0  0
   53.8630  156.4535   -4.9642 C   0  0  0  0  0  0  0  0  0  0  0  0
   55.9719  160.1196   -2.9457 C   0  0  0  0  0  0  0  0  0  0  0  0
   58.2585  161.5452   -5.2940 C   0  0  0  0  0  0  0  0  0  0  0  0
   59.4867  160.8473   -3.1910 C   0  0  0  0  0  0  0  0  0  0  0  0
   61.2138  161.4604   -6.1475 C   0  0  0  0  0  0  0  0  0  0  0  0
   57.2550  160.4196   -5.0400 C   0  0  0  0  0  0  0  0  0  0  0  0
   58.4812  159.7116   -3.0241 C   0  0  0  0  0  0  0  0  0  0  0  0
   60.8116  162.2532   -4.8880 C   0  0  2  0  0  0  0  0  0  0  0  0
   60.5451  160.2206   -5.5061 C   0  0  1  0  0  0  0  0  0  0  0  0
   59.6395  161.2177   -4.6798 C   0  0  0  0  0  0  0  0  0  0  0  0
   56.4107  156.3613   -5.1193 C   0  0  0  0  0  0  0  0  0  0  0  0
   53.3840  155.8772   -6.2321 C   0  0  0  0  0  0  0  0  0  0  0  0
   55.9507  157.7030   -2.2063 C   0  0  0  0  0  0  0  0  0  0  0  0
   55.8081  159.1645   -1.7905 C   0  0  0  0  0  0  0  0  0  0  0  0
   60.2434  157.5359   -7.9711 C   0  0  0  0  0  0  0  0  0  0  0  0
   60.8019  158.8097   -7.3681 C   0  0  0  0  0  0  0  0  0  0  0  0
   53.6164  157.3980   -2.9161 N   0  0  0  0  0  0  0  0  0  0  0  0
   53.0038  156.9027   -4.0049 N   0  0  0  0  0  0  0  0  0  0  0  0
   57.1926  160.0829   -3.6179 N   0  0  0  0  0  0  0  0  0  0  0  0
   59.9954  156.5494   -6.8897 N   0  3  0  0  0  0  0  0  0  0  0  0
   60.4149  163.5689   -5.1662 O   0  5  0  0  0  0  0  0  0  0  0  0
   55.0424  160.8761   -3.2388 O   0  0  0  0  0  0  0  0  0  0  0  0
   59.8879  159.3247   -6.4180 O   0  0  0  0  0  0  0  0  0  0  0  0
   58.3350  161.7281   -6.3719 H   0  0  0  0  0  0  0  0  0  0  0  0
   57.8650  162.4624   -4.8369 H   0  0  0  0  0  0  0  0  0  0  0  0
   59.1427  161.7253   -2.6293 H   0  0  0  0  0  0  0  0  0  0  0  0
   60.4486  160.5461   -2.7597 H   0  0  0  0  0  0  0  0  0  0  0  0
   60.7467  161.7715   -7.0908 H   0  0  0  0  0  0  0  0  0  0  0  0
   62.2919  161.3669   -6.3131 H   0  0  0  0  0  0  0  0  0  0  0  0
   56.2700  160.7237   -5.4090 H   0  0  0  0  0  0  0  0  0  0  0  0
   57.5259  159.5059   -5.5766 H   0  0  0  0  0  0  0  0  0  0  0  0
   58.8257  158.8064   -3.5373 H   0  0  0  0  0  0  0  0  0  0  0  0
   58.3867  159.4652   -1.9652 H   0  0  0  0  0  0  0  0  0  0  0  0
   61.5812  162.2359   -4.1067 H   0  0  0  0  0  0  0  0  0  0  0  0
   61.2502  159.6599   -4.8796 H   0  0  0  0  0  0  0  0  0  0  0  0
   56.7527  155.3433   -4.8662 H   0  0  0  0  0  0  0  0  0  0  0  0
   56.3468  156.4268   -6.2200 H   0  0  0  0  0  0  0  0  0  0  0  0
   57.2085  157.0644   -4.8206 H   0  0  0  0  0  0  0  0  0  0  0  0
   53.2464  154.7855   -6.1492 H   0  0  0  0  0  0  0  0  0  0  0  0
   52.4186  156.3107   -6.5489 H   0  0  0  0  0  0  0  0  0  0  0  0
   54.0855  156.0615   -7.0654 H   0  0  0  0  0  0  0  0  0  0  0  0
   56.9577  157.5125   -2.5997 H   0  0  0  0  0  0  0  0  0  0  0  0
   55.8601  157.0745   -1.3107 H   0  0  0  0  0  0  0  0  0  0  0  0
   54.8364  159.3499   -1.3295 H   0  0  0  0  0  0  0  0  0  0  0  0
   56.5759  159.4114   -1.0551 H   0  0  0  0  0  0  0  0  0  0  0  0
   60.9470  157.0645   -8.6631 H   0  0  0  0  0  0  0  0  0  0  0  0
   59.2831  157.7090   -8.4641 H   0  0  0  0  0  0  0  0  0  0  0  0
   61.7418  158.5947   -6.8502 H   0  0  0  0  0  0  0  0  0  0  0  0
   60.9878  159.5714   -8.1323 H   0  0  0  0  0  0  0  0  0  0  0  0
   51.9914  156.9001   -4.0248 H   0  0  0  0  0  0  0  0  0  0  0  0
   60.7064  156.6256   -6.1550 H   0  0  0  0  0  0  0  0  0  0  0  0
   60.0196  155.5921   -7.2561 H   0  0  0  0  0  0  0  0  0  0  0  0
   59.0773  156.7013   -6.4595 H   0  0  0  0  0  0  0  0  0  0  0  0
  1  2  1  0  0  0  0
  1  3  2  0  0  0  0
  1 13  1  0  0  0  0
  2 15  1  0  0  0  0
  2 19  2  0  0  0  0
  3 14  1  0  0  0  0
  3 20  1  0  0  0  0
  4 16  1  0  0  0  0
  4 21  1  0  0  0  0
  4 24  2  0  0  0  0
  5  8  1  0  0  0  0
  5 12  1  0  0  0  0
  6  9  1  0  0  0  0
  6 12  1  0  0  0  0
  7 10  1  0  0  0  0
  7 11  1  0  0  0  0
  8 21  1  0  0  0  0
  9 21  1  0  0  0  0
 10 12  1  0  0  0  0
 10 23  1  0  0  0  0
 11 12  1  0  0  0  0
 11 25  1  0  0  0  0
 15 16  1  0  0  0  0
 17 18  1  0  0  0  0
 17 22  1  0  0  0  0
 18 25  1  0  0  0  0
 19 20  1  0  0  0  0
  5 26  1  0  0  0  0
  5 27  1  0  0  0  0
  6 28  1  0  0  0  0
  6 29  1  0  0  0  0
  7 30  1  0  0  0  0
  7 31  1  0  0  0  0
  8 32  1  0  0  0  0
  8 33  1  0  0  0  0
  9 34  1  0  0  0  0
  9 35  1  0  0  0  0
 10 36  1  0  0  0  0
 11 37  1  0  0  0  0
 13 38  1  0  0  0  0
 13 39  1  0  0  0  0
 13 40  1  0  0  0  0
 14 41  1  0  0  0  0
 14 42  1  0  0  0  0
 14 43  1  0  0  0  0
 15 44  1  0  0  0  0
 15 45  1  0  0  0  0
 16 46  1  0  0  0  0
 16 47  1  0  0  0  0
 17 48  1  0  0  0  0
 17 49  1  0  0  0  0
 18 50  1  0  0  0  0
 18 51  1  0  0  0  0
 20 52  1  0  0  0  0
 22 53  1  0  0  0  0
 22 54  1  0  0  0  0
 22 55  1  0  0  0  0
M  CHG  2  22   1  23  -1
M  END
> <FRED Chemgauss4 score>
-9.271414

$$$$
C51113447	P76540543
  -OEChem-05122015073D

 35 36  0     0  0  0  0  0  0999 V2000
   59.2639  161.8116   -2.9133 C   0  0  0  0  0  0  0  0  0  0  0  0
   57.6643  161.3768   -4.6709 C   0  0  0  0  0  0  0  0  0  0  0  0
   60.2542  162.0352   -3.8698 C   0  0  0  0  0  0  0  0  0  0  0  0
   58.6545  161.6005   -5.6274 C   0  0  0  0  0  0  0  0  0  0  0  0
   56.0113  155.4691   -5.6032 C   0  0  0  0  0  0  0  0  0  0  0  0
   54.8690  155.6573   -6.3733 C   0  0  0  0  0  0  0  0  0  0  0  0
   57.9690  161.4823   -3.3138 C   0  0  0  0  0  0  0  0  0  0  0  0
   59.9495  161.9297   -5.2269 C   0  0  0  0  0  0  0  0  0  0  0  0
   56.2187  156.2535   -4.4740 C   0  0  0  0  0  0  0  0  0  0  0  0
   55.2613  157.2047   -4.1603 C   0  0  0  0  0  0  0  0  0  0  0  0
   53.9719  156.6351   -5.9745 C   0  0  0  0  0  0  0  0  0  0  0  0
   55.3936  158.0897   -2.9745 C   0  0  0  0  0  0  0  0  0  0  0  0
   56.9094  161.2447   -2.2914 C   0  0  0  0  0  0  0  0  0  0  0  0
   56.8097  159.7823   -1.8404 C   0  0  0  0  0  0  0  0  0  0  0  0
   54.1393  157.4165   -4.8841 N   0  0  0  0  0  0  0  0  0  0  0  0
   52.0155  157.9240   -6.6328 N   0  0  0  0  0  0  0  0  0  0  0  0
   52.8137  156.8169   -6.7703 N   0  0  0  0  0  0  0  0  0  0  0  0
   56.5280  158.8911   -2.9337 N   0  0  0  0  0  0  0  0  0  0  0  0
   54.5298  158.0570   -2.1019 O   0  0  0  0  0  0  0  0  0  0  0  0
   61.1712  162.2059   -6.4066 Cl  0  0  0  0  0  0  0  0  0  0  0  0
   57.6344  156.0181   -3.5246 Cl  0  0  0  0  0  0  0  0  0  0  0  0
   59.5092  161.8956   -1.8578 H   0  0  0  0  0  0  0  0  0  0  0  0
   56.6577  161.1209   -4.9912 H   0  0  0  0  0  0  0  0  0  0  0  0
   61.2586  162.2914   -3.5428 H   0  0  0  0  0  0  0  0  0  0  0  0
   58.4025  161.5146   -6.6813 H   0  0  0  0  0  0  0  0  0  0  0  0
   56.7301  154.7081   -5.8953 H   0  0  0  0  0  0  0  0  0  0  0  0
   54.6995  155.0502   -7.2566 H   0  0  0  0  0  0  0  0  0  0  0  0
   55.9320  161.5525   -2.6995 H   0  0  0  0  0  0  0  0  0  0  0  0
   57.0693  161.8883   -1.4092 H   0  0  0  0  0  0  0  0  0  0  0  0
   57.7552  159.4515   -1.3991 H   0  0  0  0  0  0  0  0  0  0  0  0
   56.0196  159.6494   -1.0940 H   0  0  0  0  0  0  0  0  0  0  0  0
   51.0441  157.6167   -6.6467 H   0  0  0  0  0  0  0  0  0  0  0  0
   52.1355  158.5139   -7.4552 H   0  0  0  0  0  0  0  0  0  0  0  0
   52.7048  156.2281   -7.5799 H   0  0  0  0  0  0  0  0  0  0  0  0
   57.2293  158.8136   -3.6674 H   0  0  0  0  0  0  0  0  0  0  0  0
  1  3  1  0  0  0  0
  1  7  2  0  0  0  0
  2  4  2  0  0  0  0
  2  7  1  0  0  0  0
  3  8  2  0  0  0  0
  4  8  1  0  0  0  0
  5  6  1  0  0  0  0
  5  9  2  0  0  0  0
  6 11  2  0  0  0  0
  7 13  1  0  0  0  0
  8 20  1  0  0  0  0
  9 10  1  0  0  0  0
  9 21  1  0  0  0  0
 10 12  1  0  0  0  0
 10 15  2  0  0  0  0
 11 15  1  0  0  0  0
 11 17  1  0  0  0  0
 12 18  1  0  0  0  0
 12 19  2  0  0  0  0
 13 14  1  0  0  0  0
 14 18  1  0  0  0  0
 16 17  1  0  0  0  0
  1 22  1  0  0  0  0
  2 23  1  0  0  0  0
  3 24  1  0  0  0  0
  4 25  1  0  0  0  0
  5 26  1  0  0  0  0
  6 27  1  0  0  0  0
 13 28  1  0  0  0  0
 13 29  1  0  0  0  0
 14 30  1  0  0  0  0
 14 31  1  0  0  0  0
 16 32  1  0  0  0  0
 16 33  1  0  0  0  0
 17 34  1  0  0  0  0
 18 35  1  0  0  0  0
M  END
> <FRED Chemgauss4 score>
-9.267389

$$$$
C78955199	P123237055
  -OEChem-05122015073D

 33 34  0     0  0  0  0  0  0999 V2000
   55.9662  156.9384   -6.5076 C   0  0  0  0  0  0  0  0  0  0  0  0
   55.6057  159.5142   -3.0606 C   0  0  0  0  0  0  0  0  0  0  0  0
   56.6598  155.7691   -6.8193 C   0  0  0  0  0  0  0  0  0  0  0  0
   56.4188  160.0228   -2.0478 C   0  0  0  0  0  0  0  0  0  0  0  0
   55.3021  154.5430   -5.2411 C   0  0  0  0  0  0  0  0  0  0  0  0
   56.9289  160.6830   -4.7098 C   0  0  0  0  0  0  0  0  0  0  0  0
   54.6085  155.7124   -4.9294 C   0  0  0  0  0  0  0  0  0  0  0  0
   54.9405  156.9100   -5.5626 C   0  0  0  0  0  0  0  0  0  0  0  0
   55.8608  159.8443   -4.3917 C   0  0  0  0  0  0  0  0  0  0  0  0
   56.3278  154.5714   -6.1861 C   0  0  0  0  0  0  0  0  0  0  0  0
   57.4869  160.8615   -2.3660 C   0  0  0  0  0  0  0  0  0  0  0  0
   57.7420  161.1916   -3.6970 C   0  0  0  0  0  0  0  0  0  0  0  0
   53.5428  155.6550   -3.9378 C   0  0  0  0  0  0  0  0  0  0  0  0
   54.2138  158.1767   -5.2474 C   0  0  0  0  0  0  0  0  0  0  0  0
   53.8968  155.8683   -2.6840 N   0  0  0  0  0  0  0  0  0  0  0  0
   52.2141  155.3884   -4.2775 N   0  0  0  0  0  0  0  0  0  0  0  0
   55.0514  159.3381   -5.3991 N   0  0  0  0  0  0  0  0  0  0  0  0
   55.2685  156.1135   -2.5638 O   0  0  0  0  0  0  0  0  0  0  0  0
   56.9942  153.4487   -6.4851 F   0  0  0  0  0  0  0  0  0  0  0  0
   58.4577  161.4596   -1.0667 Cl  0  0  0  0  0  0  0  0  0  0  0  0
   59.0499  162.2256   -4.1543 Cl  0  0  0  0  0  0  0  0  0  0  0  0
   56.2326  157.8668   -7.0057 H   0  0  0  0  0  0  0  0  0  0  0  0
   54.7759  158.8615   -2.8015 H   0  0  0  0  0  0  0  0  0  0  0  0
   57.4584  155.7910   -7.5548 H   0  0  0  0  0  0  0  0  0  0  0  0
   56.2054  159.7552   -1.0158 H   0  0  0  0  0  0  0  0  0  0  0  0
   55.0531  153.6026   -4.7561 H   0  0  0  0  0  0  0  0  0  0  0  0
   57.1222  160.9364   -5.7501 H   0  0  0  0  0  0  0  0  0  0  0  0
   53.3447  158.3061   -5.9060 H   0  0  0  0  0  0  0  0  0  0  0  0
   53.8358  158.1756   -4.2167 H   0  0  0  0  0  0  0  0  0  0  0  0
   51.9237  155.2423   -5.2375 H   0  0  0  0  0  0  0  0  0  0  0  0
   51.4834  155.3733   -3.5739 H   0  0  0  0  0  0  0  0  0  0  0  0
   55.0531  159.8165   -6.2951 H   0  0  0  0  0  0  0  0  0  0  0  0
   55.3591  156.2464   -1.6050 H   0  0  0  0  0  0  0  0  0  0  0  0
  1  3  2  0  0  0  0
  1  8  1  0  0  0  0
  2  4  1  0  0  0  0
  2  9  2  0  0  0  0
  3 10  1  0  0  0  0
  4 11  2  0  0  0  0
  5  7  1  0  0  0  0
  5 10  2  0  0  0  0
  6  9  1  0  0  0  0
  6 12  2  0  0  0  0
  7  8  2  0  0  0  0
  7 13  1  0  0  0  0
  8 14  1  0  0  0  0
  9 17  1  0  0  0  0
 10 19  1  0  0  0  0
 11 12  1  0  0  0  0
 11 20  1  0  0  0  0
 12 21  1  0  0  0  0
 13 15  2  0  0  0  0
 13 16  1  0  0  0  0
 14 17  1  0  0  0  0
 15 18  1  0  0  0  0
  1 22  1  0  0  0  0
  2 23  1  0  0  0  0
  3 24  1  0  0  0  0
  4 25  1  0  0  0  0
  5 26  1  0  0  0  0
  6 27  1  0  0  0  0
 14 28  1  0  0  0  0
 14 29  1  0  0  0  0
 16 30  1  0  0  0  0
 16 31  1  0  0  0  0
 17 32  1  0  0  0  0
 18 33  1  0  0  0  0
M  END
> <FRED Chemgauss4 score>
-9.250980

$$$$
C00386377	P06593472
  -OEChem-05122015073D

 40 41  0     1  0  0  0  0  0999 V2000
   55.7932  158.0186   -4.8201 C   0  0  0  0  0  0  0  0  0  0  0  0
   56.3968  156.8565   -5.3877 C   0  0  0  0  0  0  0  0  0  0  0  0
   57.7098  157.0950   -5.7453 C   0  0  0  0  0  0  0  0  0  0  0  0
   56.6664  159.0834   -4.7641 C   0  0  0  0  0  0  0  0  0  0  0  0
   54.4323  158.1106   -4.3527 C   0  0  0  0  0  0  0  0  0  0  0  0
   59.6781  162.2639   -5.0039 C   0  0  0  0  0  0  0  0  0  0  0  0
   57.3388  161.5149   -4.2858 C   0  0  0  0  0  0  0  0  0  0  0  0
   55.7372  155.5330   -5.6163 C   0  0  0  0  0  0  0  0  0  0  0  0
   58.6382  156.0832   -6.3425 C   0  0  0  0  0  0  0  0  0  0  0  0
   56.7646  154.4203   -5.8796 C   0  0  0  0  0  0  0  0  0  0  0  0
   57.8477  154.8704   -6.8842 C   0  0  2  0  0  0  0  0  0  0  0  0
   58.7956  153.7187   -7.2120 C   0  0  0  0  0  0  0  0  0  0  0  0
   60.5405  161.1191   -7.0836 C   0  0  0  0  0  0  0  0  0  0  0  0
   60.8676  161.6099   -5.6849 C   0  0  0  0  0  0  0  0  0  0  0  0
   53.4484  158.5130   -5.2603 N   0  0  0  0  0  0  0  0  0  0  0  0
   56.5049  160.3623   -4.3034 N   0  0  0  0  0  0  0  0  0  0  0  0
   58.6172  161.3498   -4.8557 N   0  0  0  0  0  0  0  0  0  0  0  0
   54.1220  157.8583   -3.1683 O   0  0  0  0  0  0  0  0  0  0  0  0
   59.6749  163.4361   -4.6405 O   0  0  0  0  0  0  0  0  0  0  0  0
   56.9872  163.0224   -3.6374 S   0  0  0  0  0  0  0  0  0  0  0  0
   58.2078  158.6851   -5.3951 S   0  0  0  0  0  0  0  0  0  0  0  0
   55.1202  155.2566   -4.7537 H   0  0  0  0  0  0  0  0  0  0  0  0
   55.0697  155.6207   -6.4826 H   0  0  0  0  0  0  0  0  0  0  0  0
   59.2274  156.5272   -7.1538 H   0  0  0  0  0  0  0  0  0  0  0  0
   59.3418  155.7553   -5.5663 H   0  0  0  0  0  0  0  0  0  0  0  0
   57.2423  154.1347   -4.9329 H   0  0  0  0  0  0  0  0  0  0  0  0
   56.2417  153.5318   -6.2530 H   0  0  0  0  0  0  0  0  0  0  0  0
   57.3442  155.1702   -7.8142 H   0  0  0  0  0  0  0  0  0  0  0  0
   59.3118  153.3970   -6.3089 H   0  0  0  0  0  0  0  0  0  0  0  0
   59.5308  154.0433   -7.9465 H   0  0  0  0  0  0  0  0  0  0  0  0
   58.2316  152.8805   -7.6181 H   0  0  0  0  0  0  0  0  0  0  0  0
   60.2041  161.9437   -7.7210 H   0  0  0  0  0  0  0  0  0  0  0  0
   59.7448  160.3671   -7.0604 H   0  0  0  0  0  0  0  0  0  0  0  0
   61.4239  160.6680   -7.5458 H   0  0  0  0  0  0  0  0  0  0  0  0
   61.2009  160.7670   -5.0689 H   0  0  0  0  0  0  0  0  0  0  0  0
   61.6841  162.3393   -5.7336 H   0  0  0  0  0  0  0  0  0  0  0  0
   53.7169  158.7274   -6.2146 H   0  0  0  0  0  0  0  0  0  0  0  0
   52.4732  158.5969   -4.9921 H   0  0  0  0  0  0  0  0  0  0  0  0
   55.5660  160.5897   -3.9258 H   0  0  0  0  0  0  0  0  0  0  0  0
   58.8041  160.4180   -5.2194 H   0  0  0  0  0  0  0  0  0  0  0  0
  1  2  1  0  0  0  0
  1  4  2  0  0  0  0
  1  5  1  0  0  0  0
  2  3  2  0  0  0  0
  2  8  1  0  0  0  0
  3  9  1  0  0  0  0
  3 21  1  0  0  0  0
  4 16  1  0  0  0  0
  4 21  1  0  0  0  0
  5 15  1  0  0  0  0
  5 18  2  0  0  0  0
  6 14  1  0  0  0  0
  6 17  1  0  0  0  0
  6 19  2  0  0  0  0
  7 16  1  0  0  0  0
  7 17  1  0  0  0  0
  7 20  2  0  0  0  0
  8 10  1  0  0  0  0
  9 11  1  0  0  0  0
 10 11  1  0  0  0  0
 11 12  1  0  0  0  0
 13 14  1  0  0  0  0
  8 22  1  0  0  0  0
  8 23  1  0  0  0  0
  9 24  1  0  0  0  0
  9 25  1  0  0  0  0
 10 26  1  0  0  0  0
 10 27  1  0  0  0  0
 11 28  1  0  0  0  0
 12 29  1  0  0  0  0
 12 30  1  0  0  0  0
 12 31  1  0  0  0  0
 13 32  1  0  0  0  0
 13 33  1  0  0  0  0
 13 34  1  0  0  0  0
 14 35  1  0  0  0  0
 14 36  1  0  0  0  0
 15 37  1  0  0  0  0
 15 38  1  0  0  0  0
 16 39  1  0  0  0  0
 17 40  1  0  0  0  0
M  END
> <FRED Chemgauss4 score>
-9.236477

$$$$
C91131479	P142561522
  -OEChem-05122015073D

 44 45  0     1  0  0  0  0  0999 V2000
   56.0159  157.8138   -5.0828 C   0  0  0  0  0  0  0  0  0  0  0  0
   54.7777  159.4765   -2.5372 C   0  0  0  0  0  0  0  0  0  0  0  0
   56.8917  154.4889   -6.7023 C   0  0  0  0  0  0  0  0  0  0  0  0
   55.5053  153.8566   -6.6510 C   0  0  0  0  0  0  0  0  0  0  0  0
   56.8272  155.9903   -6.4402 C   0  0  0  0  0  0  0  0  0  0  0  0
   54.8029  154.1557   -5.3295 C   0  0  0  0  0  0  0  0  0  0  0  0
   58.4957  158.0481   -4.6054 C   0  0  0  0  0  0  0  0  0  0  0  0
   59.2845  158.8438   -5.6390 C   0  0  0  0  0  0  0  0  0  0  0  0
   58.1560  160.7122   -3.9106 C   0  0  0  0  0  0  0  0  0  0  0  0
   56.1224  156.2983   -5.1193 C   0  0  2  0  0  0  0  0  0  0  0  0
   54.7268  155.6649   -5.0472 C   0  0  2  0  0  0  0  0  0  0  0  0
   56.8838  159.8505   -3.9717 C   0  0  2  0  0  0  0  0  0  0  0  0
   56.2799  159.7340   -2.5681 C   0  0  0  0  0  0  0  0  0  0  0  0
   54.0702  155.9033   -3.6841 C   0  0  0  0  0  0  0  0  0  0  0  0
   57.1052  158.5092   -4.5482 N   0  0  0  0  0  0  0  0  0  0  0  0
   52.6062  155.8282   -3.8498 N   0  3  0  0  0  0  0  0  0  0  0  0
   54.0910  159.9596   -3.4787 O   0  5  0  0  0  0  0  0  0  0  0  0
   54.9966  158.3579   -5.5160 O   0  0  0  0  0  0  0  0  0  0  0  0
   54.4035  158.7903   -1.5422 O   0  0  0  0  0  0  0  0  0  0  0  0
   59.1081  160.6525   -5.4599 S   0  0  0  0  0  0  0  0  0  0  0  0
   57.5405  154.0144   -5.9559 H   0  0  0  0  0  0  0  0  0  0  0  0
   57.3451  154.3046   -7.6830 H   0  0  0  0  0  0  0  0  0  0  0  0
   54.8981  154.2361   -7.4820 H   0  0  0  0  0  0  0  0  0  0  0  0
   55.5898  152.7725   -6.7866 H   0  0  0  0  0  0  0  0  0  0  0  0
   57.8441  156.4043   -6.4314 H   0  0  0  0  0  0  0  0  0  0  0  0
   56.3054  156.4825   -7.2732 H   0  0  0  0  0  0  0  0  0  0  0  0
   53.7926  153.7297   -5.3554 H   0  0  0  0  0  0  0  0  0  0  0  0
   55.3396  153.6510   -4.5156 H   0  0  0  0  0  0  0  0  0  0  0  0
   58.5351  156.9986   -4.8804 H   0  0  0  0  0  0  0  0  0  0  0  0
   58.9322  158.1409   -3.6150 H   0  0  0  0  0  0  0  0  0  0  0  0
   60.3585  158.5963   -5.5600 H   0  0  0  0  0  0  0  0  0  0  0  0
   58.9771  158.5629   -6.6637 H   0  0  0  0  0  0  0  0  0  0  0  0
   57.8911  161.7534   -3.7297 H   0  0  0  0  0  0  0  0  0  0  0  0
   58.8018  160.3825   -3.0991 H   0  0  0  0  0  0  0  0  0  0  0  0
   56.7395  155.9994   -4.2909 H   0  0  0  0  0  0  0  0  0  0  0  0
   54.0818  156.1266   -5.8092 H   0  0  0  0  0  0  0  0  0  0  0  0
   56.1744  160.4068   -4.5518 H   0  0  0  0  0  0  0  0  0  0  0  0
   56.4864  160.6606   -2.0297 H   0  0  0  0  0  0  0  0  0  0  0  0
   56.7847  158.9195   -2.0456 H   0  0  0  0  0  0  0  0  0  0  0  0
   54.3135  156.8927   -3.3073 H   0  0  0  0  0  0  0  0  0  0  0  0
   54.3659  155.1352   -2.9749 H   0  0  0  0  0  0  0  0  0  0  0  0
   52.1238  155.8572   -2.9419 H   0  0  0  0  0  0  0  0  0  0  0  0
   52.3266  154.9575   -4.3209 H   0  0  0  0  0  0  0  0  0  0  0  0
   52.2517  156.6124   -4.4135 H   0  0  0  0  0  0  0  0  0  0  0  0
  1 10  1  0  0  0  0
  1 15  1  0  0  0  0
  1 18  2  0  0  0  0
  2 13  1  0  0  0  0
  2 17  1  0  0  0  0
  2 19  2  0  0  0  0
  3  4  1  0  0  0  0
  3  5  1  0  0  0  0
  4  6  1  0  0  0  0
  5 10  1  0  0  0  0
  6 11  1  0  0  0  0
  7  8  1  0  0  0  0
  7 15  1  0  0  0  0
  8 20  1  0  0  0  0
  9 12  1  0  0  0  0
  9 20  1  0  0  0  0
 10 11  1  0  0  0  0
 11 14  1  0  0  0  0
 12 13  1  0  0  0  0
 12 15  1  0  0  0  0
 14 16  1  0  0  0  0
  3 21  1  0  0  0  0
  3 22  1  0  0  0  0
  4 23  1  0  0  0  0
  4 24  1  0  0  0  0
  5 25  1  0  0  0  0
  5 26  1  0  0  0  0
  6 27  1  0  0  0  0
  6 28  1  0  0  0  0
  7 29  1  0  0  0  0
  7 30  1  0  0  0  0
  8 31  1  0  0  0  0
  8 32  1  0  0  0  0
  9 33  1  0  0  0  0
  9 34  1  0  0  0  0
 10 35  1  0  0  0  0
 11 36  1  0  0  0  0
 12 37  1  0  0  0  0
 13 38  1  0  0  0  0
 13 39  1  0  0  0  0
 14 40  1  0  0  0  0
 14 41  1  0  0  0  0
 16 42  1  0  0  0  0
 16 43  1  0  0  0  0
 16 44  1  0  0  0  0
M  CHG  2  16   1  17  -1
M  END
> <FRED Chemgauss4 score>
-9.203358

$$$$
C87601468	P137040424
  -OEChem-05122015073D

 22 23  0     1  0  0  0  0  0999 V2000
   53.9738  155.4559   -6.1083 C   0  0  0  0  0  0  0  0  0  0  0  0
   54.9317  155.9188   -5.2416 C   0  0  0  0  0  0  0  0  0  0  0  0
   56.3545  156.1479   -5.5732 C   0  0  0  0  0  0  0  0  0  0  0  0
   58.3606  155.8268   -6.1816 C   0  0  0  0  0  0  0  0  0  0  0  0
   59.3486  153.9582   -7.5707 C   0  0  0  0  0  0  0  0  0  0  0  0
   59.6255  155.1572   -6.6672 C   0  0  2  0  0  0  0  0  0  0  0  0
   56.9705  157.3425   -5.4771 N   0  5  0  0  0  0  0  0  0  0  0  0
   54.3716  156.1416   -4.0143 N   0  0  0  0  0  0  0  0  0  0  0  0
   57.1919  155.1957   -6.0059 N   0  0  0  0  0  0  0  0  0  0  0  0
   58.2686  157.1349   -5.8715 N   0  0  0  0  0  0  0  0  0  0  0  0
   53.0829  155.8279   -4.0906 N   0  0  0  0  0  0  0  0  0  0  0  0
   52.8465  155.4168   -5.3469 N   0  0  0  0  0  0  0  0  0  0  0  0
   60.5013  154.6838   -5.5513 N   0  3  0  0  0  0  0  0  0  0  0  0
   53.9848  155.1629   -7.1484 H   0  0  0  0  0  0  0  0  0  0  0  0
   58.7365  153.1990   -7.0711 H   0  0  0  0  0  0  0  0  0  0  0  0
   58.8180  154.2682   -8.4779 H   0  0  0  0  0  0  0  0  0  0  0  0
   60.2847  153.4794   -7.8792 H   0  0  0  0  0  0  0  0  0  0  0  0
   60.2389  155.8784   -7.2199 H   0  0  0  0  0  0  0  0  0  0  0  0
   51.9095  155.1315   -5.6049 H   0  0  0  0  0  0  0  0  0  0  0  0
   61.3129  154.1874   -5.9231 H   0  0  0  0  0  0  0  0  0  0  0  0
   59.9842  154.0502   -4.9392 H   0  0  0  0  0  0  0  0  0  0  0  0
   60.8299  155.4765   -4.9972 H   0  0  0  0  0  0  0  0  0  0  0  0
  1  2  2  0  0  0  0
  1 12  1  0  0  0  0
  2  3  1  0  0  0  0
  2  8  1  0  0  0  0
  3  7  1  0  0  0  0
  3  9  2  0  0  0  0
  4  6  1  0  0  0  0
  4  9  1  0  0  0  0
  4 10  2  0  0  0  0
  5  6  1  0  0  0  0
  6 13  1  0  0  0  0
  7 10  1  0  0  0  0
  8 11  2  0  0  0  0
 11 12  1  0  0  0  0
  1 14  1  0  0  0  0
  5 15  1  0  0  0  0
  5 16  1  0  0  0  0
  5 17  1  0  0  0  0
  6 18  1  0  0  0  0
 12 19  1  0  0  0  0
 13 20  1  0  0  0  0
 13 21  1  0  0  0  0
 13 22  1  0  0  0  0
M  CHG  2   7  -1  13   1
M  END
> <FRED Chemgauss4 score>
-9.184013

$$$$
C88168122	P137882102
  -OEChem-05122015073D

 30 31  0     0  0  0  0  0  0999 V2000
   59.8150  153.7976   -7.4270 C   0  0  0  0  0  0  0  0  0  0  0  0
   60.0151  155.1334   -7.0792 C   0  0  0  0  0  0  0  0  0  0  0  0
   58.5351  153.2460   -7.3691 C   0  0  0  0  0  0  0  0  0  0  0  0
   55.3506  157.2419   -4.3958 C   0  0  0  0  0  0  0  0  0  0  0  0
   57.6555  155.3662   -6.6153 C   0  0  0  0  0  0  0  0  0  0  0  0
   58.9354  155.9177   -6.6733 C   0  0  0  0  0  0  0  0  0  0  0  0
   57.4554  154.0303   -6.9632 C   0  0  0  0  0  0  0  0  0  0  0  0
   55.1572  157.5562   -3.0373 C   0  0  0  0  0  0  0  0  0  0  0  0
   54.0810  157.0877   -4.8967 C   0  0  0  0  0  0  0  0  0  0  0  0
   56.1857  157.8252   -2.0167 C   0  0  0  0  0  0  0  0  0  0  0  0
   53.5824  156.7590   -6.2429 C   0  0  0  0  0  0  0  0  0  0  0  0
   56.6493  157.1061   -5.1368 C   0  0  0  0  0  0  0  0  0  0  0  0
   53.8664  157.5997   -2.6968 N   0  0  0  0  0  0  0  0  0  0  0  0
   53.2372  157.3107   -3.8486 N   0  0  0  0  0  0  0  0  0  0  0  0
   56.5592  156.1628   -6.2038 N   0  0  0  0  0  0  0  0  0  0  0  0
   59.2328  157.5676   -6.2537 Cl  0  0  0  0  0  0  0  0  0  0  0  0
   55.8891  153.3019   -6.9066 Cl  0  0  0  0  0  0  0  0  0  0  0  0
   60.6552  153.1862   -7.7431 H   0  0  0  0  0  0  0  0  0  0  0  0
   61.0194  155.5468   -7.1303 H   0  0  0  0  0  0  0  0  0  0  0  0
   58.3970  152.2030   -7.6437 H   0  0  0  0  0  0  0  0  0  0  0  0
   56.4366  158.8987   -1.9754 H   0  0  0  0  0  0  0  0  0  0  0  0
   55.8595  157.5203   -1.0067 H   0  0  0  0  0  0  0  0  0  0  0  0
   57.1211  157.2717   -2.2126 H   0  0  0  0  0  0  0  0  0  0  0  0
   53.4763  155.6687   -6.3756 H   0  0  0  0  0  0  0  0  0  0  0  0
   52.5974  157.2159   -6.4460 H   0  0  0  0  0  0  0  0  0  0  0  0
   54.2553  157.1267   -7.0381 H   0  0  0  0  0  0  0  0  0  0  0  0
   56.9535  158.0686   -5.5624 H   0  0  0  0  0  0  0  0  0  0  0  0
   57.4514  156.7785   -4.4671 H   0  0  0  0  0  0  0  0  0  0  0  0
   52.2251  157.2800   -3.8463 H   0  0  0  0  0  0  0  0  0  0  0  0
   55.7006  156.0348   -6.6999 H   0  0  0  0  0  0  0  0  0  0  0  0
  1  2  1  0  0  0  0
  1  3  2  0  0  0  0
  2  6  2  0  0  0  0
  3  7  1  0  0  0  0
  4  8  1  0  0  0  0
  4  9  2  0  0  0  0
  4 12  1  0  0  0  0
  5  6  1  0  0  0  0
  5  7  2  0  0  0  0
  5 15  1  0  0  0  0
  6 16  1  0  0  0  0
  7 17  1  0  0  0  0
  8 10  1  0  0  0  0
  8 13  2  0  0  0  0
  9 11  1  0  0  0  0
  9 14  1  0  0  0  0
 12 15  1  0  0  0  0
 13 14  1  0  0  0  0
  1 18  1  0  0  0  0
  2 19  1  0  0  0  0
  3 20  1  0  0  0  0
 10 21  1  0  0  0  0
 10 22  1  0  0  0  0
 10 23  1  0  0  0  0
 11 24  1  0  0  0  0
 11 25  1  0  0  0  0
 11 26  1  0  0  0  0
 12 27  1  0  0  0  0
 12 28  1  0  0  0  0
 14 29  1  0  0  0  0
 15 30  1  0  0  0  0
M  END
> <FRED Chemgauss4 score>
-9.173985

$$$$
C36736142	P54592016
  -OEChem-05122015073D

 30 31  0     0  0  0  0  0  0999 V2000
   58.7334  157.4110   -6.8959 C   0  0  0  0  0  0  0  0  0  0  0  0
   59.9306  157.7406   -7.5314 C   0  0  0  0  0  0  0  0  0  0  0  0
   60.4609  155.3936   -7.7494 C   0  0  0  0  0  0  0  0  0  0  0  0
   58.4000  156.0727   -6.6871 C   0  0  0  0  0  0  0  0  0  0  0  0
   55.4462  156.9370   -4.5588 C   0  0  0  0  0  0  0  0  0  0  0  0
   60.7943  156.7318   -7.9581 C   0  0  0  0  0  0  0  0  0  0  0  0
   59.2637  155.0640   -7.1139 C   0  0  0  0  0  0  0  0  0  0  0  0
   55.0610  157.2623   -3.2444 C   0  0  0  0  0  0  0  0  0  0  0  0
   54.2613  156.7996   -5.2398 C   0  0  0  0  0  0  0  0  0  0  0  0
   55.9317  157.5216   -2.0834 C   0  0  0  0  0  0  0  0  0  0  0  0
   53.9574  156.4675   -6.6425 C   0  0  0  0  0  0  0  0  0  0  0  0
   57.1095  155.7615   -6.0001 C   0  0  0  0  0  0  0  0  0  0  0  0
   53.7351  157.3279   -3.0969 N   0  0  0  0  0  0  0  0  0  0  0  0
   53.2768  157.0419   -4.3275 N   0  0  0  0  0  0  0  0  0  0  0  0
   56.7307  156.7865   -5.0629 N   0  0  0  0  0  0  0  0  0  0  0  0
   62.2704  157.1388   -8.7437 Cl  0  0  0  0  0  0  0  0  0  0  0  0
   58.8856  153.3973   -6.8716 Cl  0  0  0  0  0  0  0  0  0  0  0  0
   58.0683  158.2047   -6.5656 H   0  0  0  0  0  0  0  0  0  0  0  0
   60.1771  158.7875   -7.6880 H   0  0  0  0  0  0  0  0  0  0  0  0
   61.1361  154.6080   -8.0822 H   0  0  0  0  0  0  0  0  0  0  0  0
   56.1907  158.5912   -2.0097 H   0  0  0  0  0  0  0  0  0  0  0  0
   55.4546  157.2275   -1.1322 H   0  0  0  0  0  0  0  0  0  0  0  0
   56.8765  156.9525   -2.1372 H   0  0  0  0  0  0  0  0  0  0  0  0
   53.8519  155.3781   -6.7820 H   0  0  0  0  0  0  0  0  0  0  0  0
   53.0209  156.9396   -6.9889 H   0  0  0  0  0  0  0  0  0  0  0  0
   54.7453  156.8168   -7.3334 H   0  0  0  0  0  0  0  0  0  0  0  0
   56.2931  155.6572   -6.7266 H   0  0  0  0  0  0  0  0  0  0  0  0
   57.1689  154.8150   -5.4477 H   0  0  0  0  0  0  0  0  0  0  0  0
   52.2749  157.0288   -4.4732 H   0  0  0  0  0  0  0  0  0  0  0  0
   57.4431  157.4390   -4.7489 H   0  0  0  0  0  0  0  0  0  0  0  0
  1  2  2  0  0  0  0
  1  4  1  0  0  0  0
  2  6  1  0  0  0  0
  3  6  2  0  0  0  0
  3  7  1  0  0  0  0
  4  7  2  0  0  0  0
  4 12  1  0  0  0  0
  5  8  1  0  0  0  0
  5  9  2  0  0  0  0
  5 15  1  0  0  0  0
  6 16  1  0  0  0  0
  7 17  1  0  0  0  0
  8 10  1  0  0  0  0
  8 13  2  0  0  0  0
  9 11  1  0  0  0  0
  9 14  1  0  0  0  0
 12 15  1  0  0  0  0
 13 14  1  0  0  0  0
  1 18  1  0  0  0  0
  2 19  1  0  0  0  0
  3 20  1  0  0  0  0
 10 21  1  0  0  0  0
 10 22  1  0  0  0  0
 10 23  1  0  0  0  0
 11 24  1  0  0  0  0
 11 25  1  0  0  0  0
 11 26  1  0  0  0  0
 12 27  1  0  0  0  0
 12 28  1  0  0  0  0
 14 29  1  0  0  0  0
 15 30  1  0  0  0  0
M  END
> <FRED Chemgauss4 score>
-9.165364

$$$$
C05248176	P07761419
  -OEChem-05122015073D

 42 44  0     0  0  0  0  0  0999 V2000
   57.5562  153.5626   -7.5743 C   0  0  0  0  0  0  0  0  0  0  0  0
   56.8189  154.1956   -6.5761 C   0  0  0  0  0  0  0  0  0  0  0  0
   58.6483  154.2063   -8.1487 C   0  0  0  0  0  0  0  0  0  0  0  0
   57.8606  158.0587   -5.2727 C   0  0  0  0  0  0  0  0  0  0  0  0
   56.7706  157.4044   -4.7062 C   0  0  0  0  0  0  0  0  0  0  0  0
   57.1651  155.4832   -6.1393 C   0  0  0  0  0  0  0  0  0  0  0  0
   58.2769  156.1438   -6.7197 C   0  0  0  0  0  0  0  0  0  0  0  0
   59.0074  155.4915   -7.7229 C   0  0  0  0  0  0  0  0  0  0  0  0
   58.6107  157.4306   -6.2749 C   0  0  0  0  0  0  0  0  0  0  0  0
   56.4243  156.1252   -5.1356 C   0  0  0  0  0  0  0  0  0  0  0  0
   60.1720  156.1615   -8.3434 C   0  0  0  0  0  0  0  0  0  0  0  0
   59.7676  158.1388   -6.8655 C   0  0  0  0  0  0  0  0  0  0  0  0
   61.6807  158.0870   -8.3906 C   0  0  0  0  0  0  0  0  0  0  0  0
   53.5657  156.1907   -6.0476 C   0  0  0  0  0  0  0  0  0  0  0  0
   53.0279  155.1338   -3.8100 C   0  0  0  0  0  0  0  0  0  0  0  0
   54.0335  157.4628   -3.9091 C   0  0  0  0  0  0  0  0  0  0  0  0
   53.9948  156.0687   -4.5700 C   0  0  0  0  0  0  0  0  0  0  0  0
   60.4938  157.4369   -7.8453 N   0  0  0  0  0  0  0  0  0  0  0  0
   55.3056  155.5071   -4.5245 N   0  0  0  0  0  0  0  0  0  0  0  0
   60.7794  155.5883   -9.2450 O   0  0  0  0  0  0  0  0  0  0  0  0
   60.0300  159.2790   -6.4886 O   0  0  0  0  0  0  0  0  0  0  0  0
   52.5008  157.1247   -6.1910 O   0  0  0  0  0  0  0  0  0  0  0  0
   53.0969  155.3279   -2.4014 O   0  0  0  0  0  0  0  0  0  0  0  0
   52.7239  157.8874   -3.5453 O   0  0  0  0  0  0  0  0  0  0  0  0
   57.2780  152.5659   -7.9047 H   0  0  0  0  0  0  0  0  0  0  0  0
   55.9726  153.6579   -6.1547 H   0  0  0  0  0  0  0  0  0  0  0  0
   59.2065  153.6897   -8.9249 H   0  0  0  0  0  0  0  0  0  0  0  0
   58.1094  159.0561   -4.9200 H   0  0  0  0  0  0  0  0  0  0  0  0
   56.1971  157.9032   -3.9287 H   0  0  0  0  0  0  0  0  0  0  0  0
   61.4129  158.6857   -9.2650 H   0  0  0  0  0  0  0  0  0  0  0  0
   62.4184  157.3374   -8.6898 H   0  0  0  0  0  0  0  0  0  0  0  0
   62.1314  158.7421   -7.6401 H   0  0  0  0  0  0  0  0  0  0  0  0
   54.4026  156.5396   -6.6628 H   0  0  0  0  0  0  0  0  0  0  0  0
   53.2193  155.2301   -6.4449 H   0  0  0  0  0  0  0  0  0  0  0  0
   53.2660  154.0811   -3.9973 H   0  0  0  0  0  0  0  0  0  0  0  0
   51.9910  155.2995   -4.1235 H   0  0  0  0  0  0  0  0  0  0  0  0
   54.4470  158.2162   -4.5882 H   0  0  0  0  0  0  0  0  0  0  0  0
   54.6433  157.4403   -2.9992 H   0  0  0  0  0  0  0  0  0  0  0  0
   55.4747  154.6442   -4.0489 H   0  0  0  0  0  0  0  0  0  0  0  0
   52.2816  157.1531   -7.1356 H   0  0  0  0  0  0  0  0  0  0  0  0
   52.4649  154.7081   -2.0042 H   0  0  0  0  0  0  0  0  0  0  0  0
   52.8191  158.7631   -3.1388 H   0  0  0  0  0  0  0  0  0  0  0  0
  1  2  1  0  0  0  0
  1  3  2  0  0  0  0
  2  6  2  0  0  0  0
  3  8  1  0  0  0  0
  4  5  1  0  0  0  0
  4  9  2  0  0  0  0
  5 10  2  0  0  0  0
  6  7  1  0  0  0  0
  6 10  1  0  0  0  0
  7  8  2  0  0  0  0
  7  9  1  0  0  0  0
  8 11  1  0  0  0  0
  9 12  1  0  0  0  0
 10 19  1  0  0  0  0
 11 18  1  0  0  0  0
 11 20  2  0  0  0  0
 12 18  1  0  0  0  0
 12 21  2  0  0  0  0
 13 18  1  0  0  0  0
 14 17  1  0  0  0  0
 14 22  1  0  0  0  0
 15 17  1  0  0  0  0
 15 23  1  0  0  0  0
 16 17  1  0  0  0  0
 16 24  1  0  0  0  0
 17 19  1  0  0  0  0
  1 25  1  0  0  0  0
  2 26  1  0  0  0  0
  3 27  1  0  0  0  0
  4 28  1  0  0  0  0
  5 29  1  0  0  0  0
 13 30  1  0  0  0  0
 13 31  1  0  0  0  0
 13 32  1  0  0  0  0
 14 33  1  0  0  0  0
 14 34  1  0  0  0  0
 15 35  1  0  0  0  0
 15 36  1  0  0  0  0
 16 37  1  0  0  0  0
 16 38  1  0  0  0  0
 19 39  1  0  0  0  0
 22 40  1  0  0  0  0
 23 41  1  0  0  0  0
 24 42  1  0  0  0  0
M  END
> <FRED Chemgauss4 score>
-9.164791

$$$$
C93688486	P146754841
  -OEChem-05122015073D

 41 43  0     1  0  0  0  0  0999 V2000
   55.9182  156.1798   -4.9039 C   0  0  0  0  0  0  0  0  0  0  0  0
   54.2343  155.0562   -6.0460 C   0  0  0  0  0  0  0  0  0  0  0  0
   54.5845  155.6794   -4.8685 C   0  0  0  0  0  0  0  0  0  0  0  0
   56.5366  155.9196   -6.1071 C   0  0  0  0  0  0  0  0  0  0  0  0
   53.6805  155.7921   -3.7542 C   0  0  0  0  0  0  0  0  0  0  0  0
   60.7788  163.9060   -4.7597 C   0  0  0  0  0  0  0  0  0  0  0  0
   61.3702  163.1300   -5.9424 C   0  0  0  0  0  0  0  0  0  0  0  0
   59.7061  162.9924   -4.1598 C   0  0  0  0  0  0  0  0  0  0  0  0
   58.8294  160.7800   -4.8181 C   0  0  0  0  0  0  0  0  0  0  0  0
   60.6812  160.8726   -6.9945 C   0  0  0  0  0  0  0  0  0  0  0  0
   60.8250  161.7289   -5.7507 C   0  0  2  0  0  0  0  0  0  0  0  0
   58.7327  159.8756   -6.0616 C   0  0  2  0  0  0  0  0  0  0  0  0
   57.9284  156.2801   -6.5396 C   0  0  0  0  0  0  0  0  0  0  0  0
   58.1372  158.5205   -5.7045 C   0  0  0  0  0  0  0  0  0  0  0  0
   59.4911  162.0152   -5.2176 N   0  0  2  0  0  0  0  0  0  0  0  0
   52.3996  155.2444   -3.8822 N   0  0  0  0  0  0  0  0  0  0  0  0
   58.0491  157.7052   -6.8707 N   0  0  0  0  0  0  0  0  0  0  0  0
   54.0030  156.3747   -2.6947 O   0  0  0  0  0  0  0  0  0  0  0  0
   60.0330  159.6443   -6.6322 O   0  0  0  0  0  0  0  0  0  0  0  0
   55.5106  155.0757   -7.1876 S   0  0  0  0  0  0  0  0  0  0  0  0
   56.4006  156.7042   -4.0880 H   0  0  0  0  0  0  0  0  0  0  0  0
   53.2925  154.5875   -6.2970 H   0  0  0  0  0  0  0  0  0  0  0  0
   61.5489  164.1376   -4.0161 H   0  0  0  0  0  0  0  0  0  0  0  0
   60.3484  164.8515   -5.1079 H   0  0  0  0  0  0  0  0  0  0  0  0
   61.0263  163.5720   -6.8857 H   0  0  0  0  0  0  0  0  0  0  0  0
   62.4644  163.1540   -5.9376 H   0  0  0  0  0  0  0  0  0  0  0  0
   60.0852  162.5266   -3.2419 H   0  0  0  0  0  0  0  0  0  0  0  0
   58.7932  163.5457   -3.9192 H   0  0  0  0  0  0  0  0  0  0  0  0
   57.8248  160.9925   -4.4351 H   0  0  0  0  0  0  0  0  0  0  0  0
   59.3971  160.2762   -4.0249 H   0  0  0  0  0  0  0  0  0  0  0  0
   60.1048  161.3676   -7.7855 H   0  0  0  0  0  0  0  0  0  0  0  0
   61.6652  160.6235   -7.4045 H   0  0  0  0  0  0  0  0  0  0  0  0
   61.4269  161.1931   -5.0018 H   0  0  0  0  0  0  0  0  0  0  0  0
   58.0998  160.3457   -6.8261 H   0  0  0  0  0  0  0  0  0  0  0  0
   58.6496  156.0560   -5.7460 H   0  0  0  0  0  0  0  0  0  0  0  0
   58.2270  155.7049   -7.4223 H   0  0  0  0  0  0  0  0  0  0  0  0
   57.1439  158.6689   -5.2981 H   0  0  0  0  0  0  0  0  0  0  0  0
   58.7739  158.0323   -4.9769 H   0  0  0  0  0  0  0  0  0  0  0  0
   52.1453  154.7863   -4.7507 H   0  0  0  0  0  0  0  0  0  0  0  0
   51.7172  155.2915   -3.1325 H   0  0  0  0  0  0  0  0  0  0  0  0
   58.8844  157.8206   -7.4625 H   0  0  0  0  0  0  0  0  0  0  0  0
  1  3  1  0  0  0  0
  1  4  2  0  0  0  0
  2  3  2  0  0  0  0
  2 20  1  0  0  0  0
  3  5  1  0  0  0  0
  4 13  1  0  0  0  0
  4 20  1  0  0  0  0
  5 16  1  0  0  0  0
  5 18  2  0  0  0  0
  6  7  1  0  0  0  0
  6  8  1  0  0  0  0
  7 11  1  0  0  0  0
  8 15  1  0  0  0  0
  9 12  1  0  0  0  0
  9 15  1  0  0  0  0
 10 11  1  0  0  0  0
 10 19  1  0  0  0  0
 11 15  1  0  0  0  0
 12 14  1  0  0  0  0
 12 19  1  0  0  0  0
 13 17  1  0  0  0  0
 14 17  1  0  0  0  0
  1 21  1  0  0  0  0
  2 22  1  0  0  0  0
  6 23  1  0  0  0  0
  6 24  1  0  0  0  0
  7 25  1  0  0  0  0
  7 26  1  0  0  0  0
  8 27  1  0  0  0  0
  8 28  1  0  0  0  0
  9 29  1  0  0  0  0
  9 30  1  0  0  0  0
 10 31  1  0  0  0  0
 10 32  1  0  0  0  0
 11 33  1  0  0  0  0
 12 34  1  0  0  0  0
 13 35  1  0  0  0  0
 13 36  1  0  0  0  0
 14 37  1  0  0  0  0
 14 38  1  0  0  0  0
 16 39  1  0  0  0  0
 16 40  1  0  0  0  0
 17 41  1  0  0  0  0
M  END
> <FRED Chemgauss4 score>
-9.126812

$$$$
acivicin	P10000037
  -OEChem-05122015073D

 18 18  0     1  0  0  0  0  0999 V2000
   57.2140  156.3780   -6.3291 C   0  0  0  0  0  0  0  0  0  0  0  0
   53.6939  156.2506   -3.2085 C   0  0  0  0  0  0  0  0  0  0  0  0
   55.7570  156.2711   -6.5367 C   0  0  0  0  0  0  0  0  0  0  0  0
   55.3358  156.6716   -5.1404 C   0  0  1  0  0  0  0  0  0  0  0  0
   54.0941  155.9458   -4.6596 C   0  0  2  0  0  0  0  0  0  0  0  0
   57.6200  156.3921   -5.1053 N   0  0  0  0  0  0  0  0  0  0  0  0
   52.9974  156.2474   -5.6307 N   0  3  0  0  0  0  0  0  0  0  0  0
   53.4649  157.4597   -2.9288 O   0  5  0  0  0  0  0  0  0  0  0  0
   53.6485  155.2343   -2.4560 O   0  0  0  0  0  0  0  0  0  0  0  0
   56.4518  156.3206   -4.3049 O   0  0  0  0  0  0  0  0  0  0  0  0
   58.2721  156.4349   -7.6478 Cl  0  0  0  0  0  0  0  0  0  0  0  0
   55.4566  157.0137   -7.2793 H   0  0  0  0  0  0  0  0  0  0  0  0
   55.4325  155.2765   -6.8403 H   0  0  0  0  0  0  0  0  0  0  0  0
   55.1775  157.7533   -5.0787 H   0  0  0  0  0  0  0  0  0  0  0  0
   54.2630  154.8658   -4.7388 H   0  0  0  0  0  0  0  0  0  0  0  0
   53.3791  156.6778   -6.4746 H   0  0  0  0  0  0  0  0  0  0  0  0
   52.3220  156.8905   -5.2138 H   0  0  0  0  0  0  0  0  0  0  0  0
   52.5106  155.3890   -5.8941 H   0  0  0  0  0  0  0  0  0  0  0  0
  1  3  1  0  0  0  0
  1  6  2  0  0  0  0
  1 11  1  0  0  0  0
  2  5  1  0  0  0  0
  2  8  1  0  0  0  0
  2  9  2  0  0  0  0
  3  4  1  0  0  0  0
  4  5  1  0  0  0  0
  4 10  1  0  0  0  0
  5  7  1  0  0  0  0
  6 10  1  0  0  0  0
  3 12  1  0  0  0  0
  3 13  1  0  0  0  0
  4 14  1  0  0  0  0
  5 15  1  0  0  0  0
  7 16  1  0  0  0  0
  7 17  1  0  0  0  0
  7 18  1  0  0  0  0
M  CHG  2   7   1   8  -1
M  END
> <FRED Chemgauss4 score>
-9.089476

$$$$
C85909496	P134507222
  -OEChem-05122015073D

 45 46  0     1  0  0  0  0  0999 V2000
   59.2916  153.7703   -7.5609 C   0  0  0  0  0  0  0  0  0  0  0  0
   59.7496  155.8734   -6.4635 C   0  0  0  0  0  0  0  0  0  0  0  0
   57.9766  153.8152   -7.0982 C   0  0  0  0  0  0  0  0  0  0  0  0
   58.4345  155.9184   -6.0008 C   0  0  0  0  0  0  0  0  0  0  0  0
   60.1782  154.7994   -7.2435 C   0  0  0  0  0  0  0  0  0  0  0  0
   57.5479  154.8893   -6.3182 C   0  0  0  0  0  0  0  0  0  0  0  0
   63.5919  156.1153   -8.4759 C   0  0  0  0  0  0  0  0  0  0  0  0
   53.4660  155.4342   -4.7981 C   0  0  2  0  0  0  0  0  0  0  0  0
   53.8477  156.0019   -3.4292 C   0  0  1  0  0  0  0  0  0  0  0  0
   54.1815  156.1659   -5.9382 C   0  0  2  0  0  0  0  0  0  0  0  0
   55.3774  156.0237   -3.2980 C   0  0  2  0  0  0  0  0  0  0  0  0
   55.6883  156.2262   -5.6786 C   0  0  1  0  0  0  0  0  0  0  0  0
   64.2060  157.4473   -8.7483 C   0  0  0  0  0  0  0  0  0  0  0  0
   61.5841  154.7519   -7.7386 C   0  0  0  0  0  0  0  0  0  0  0  0
   62.1694  156.1519   -7.9601 C   0  0  0  0  0  0  0  0  0  0  0  0
   55.8520  156.6691   -2.0011 C   0  0  0  0  0  0  0  0  0  0  0  0
   64.2349  155.0927   -8.6756 O   0  0  0  0  0  0  0  0  0  0  0  0
   55.9692  156.7581   -4.3784 O   0  0  0  0  0  0  0  0  0  0  0  0
   52.0549  155.4895   -4.9699 O   0  0  0  0  0  0  0  0  0  0  0  0
   53.3163  157.3197   -3.2975 O   0  0  0  0  0  0  0  0  0  0  0  0
   53.6994  157.5033   -6.0571 O   0  0  0  0  0  0  0  0  0  0  0  0
   55.3158  155.9407   -0.9113 O   0  0  0  0  0  0  0  0  0  0  0  0
   56.2566  154.9338   -5.8652 O   0  0  0  0  0  0  0  0  0  0  0  0
   59.6170  152.9298   -8.1680 H   0  0  0  0  0  0  0  0  0  0  0  0
   60.4335  156.6797   -6.2112 H   0  0  0  0  0  0  0  0  0  0  0  0
   57.2905  153.0106   -7.3491 H   0  0  0  0  0  0  0  0  0  0  0  0
   58.1066  156.7577   -5.3940 H   0  0  0  0  0  0  0  0  0  0  0  0
   53.7507  154.3757   -4.8228 H   0  0  0  0  0  0  0  0  0  0  0  0
   53.3931  155.3940   -2.6389 H   0  0  0  0  0  0  0  0  0  0  0  0
   53.9701  155.6598   -6.8865 H   0  0  0  0  0  0  0  0  0  0  0  0
   55.7622  154.9961   -3.3247 H   0  0  0  0  0  0  0  0  0  0  0  0
   56.1541  156.9055   -6.4020 H   0  0  0  0  0  0  0  0  0  0  0  0
   64.7272  157.8596   -7.8701 H   0  0  0  0  0  0  0  0  0  0  0  0
   64.9615  157.4077   -9.5485 H   0  0  0  0  0  0  0  0  0  0  0  0
   63.4897  158.2243   -9.0576 H   0  0  0  0  0  0  0  0  0  0  0  0
   62.2194  154.1942   -7.0300 H   0  0  0  0  0  0  0  0  0  0  0  0
   61.6388  154.1759   -8.6778 H   0  0  0  0  0  0  0  0  0  0  0  0
   62.1642  156.7122   -7.0175 H   0  0  0  0  0  0  0  0  0  0  0  0
   61.5595  156.7017   -8.6867 H   0  0  0  0  0  0  0  0  0  0  0  0
   55.5047  157.7015   -1.9492 H   0  0  0  0  0  0  0  0  0  0  0  0
   56.9408  156.6451   -1.9488 H   0  0  0  0  0  0  0  0  0  0  0  0
   51.6664  154.9562   -4.2582 H   0  0  0  0  0  0  0  0  0  0  0  0
   52.3544  157.2376   -3.3834 H   0  0  0  0  0  0  0  0  0  0  0  0
   54.1885  157.9075   -6.7899 H   0  0  0  0  0  0  0  0  0  0  0  0
   55.6316  156.3703   -0.0982 H   0  0  0  0  0  0  0  0  0  0  0  0
  1  3  2  0  0  0  0
  1  5  1  0  0  0  0
  2  4  1  0  0  0  0
  2  5  2  0  0  0  0
  3  6  1  0  0  0  0
  4  6  2  0  0  0  0
  5 14  1  0  0  0  0
  6 23  1  0  0  0  0
  7 13  1  0  0  0  0
  7 15  1  0  0  0  0
  7 17  2  0  0  0  0
  8  9  1  0  0  0  0
  8 10  1  0  0  0  0
  8 19  1  0  0  0  0
  9 11  1  0  0  0  0
  9 20  1  0  0  0  0
 10 12  1  0  0  0  0
 10 21  1  0  0  0  0
 11 16  1  0  0  0  0
 11 18  1  0  0  0  0
 12 18  1  0  0  0  0
 12 23  1  0  0  0  0
 14 15  1  0  0  0  0
 16 22  1  0  0  0  0
  1 24  1  0  0  0  0
  2 25  1  0  0  0  0
  3 26  1  0  0  0  0
  4 27  1  0  0  0  0
  8 28  1  0  0  0  0
  9 29  1  0  0  0  0
 10 30  1  0  0  0  0
 11 31  1  0  0  0  0
 12 32  1  0  0  0  0
 13 33  1  0  0  0  0
 13 34  1  0  0  0  0
 13 35  1  0  0  0  0
 14 36  1  0  0  0  0
 14 37  1  0  0  0  0
 15 38  1  0  0  0  0
 15 39  1  0  0  0  0
 16 40  1  0  0  0  0
 16 41  1  0  0  0  0
 19 42  1  0  0  0  0
 20 43  1  0  0  0  0
 21 44  1  0  0  0  0
 22 45  1  0  0  0  0
M  END
> <FRED Chemgauss4 score>
-9.076781

$$$$
C40229108	P61083142
  -OEChem-05122015073D

 42 43  0     0  0  0  0  0  0999 V2000
   61.1257  161.9058   -6.7452 C   0  0  0  0  0  0  0  0  0  0  0  0
   60.3105  161.2319   -5.8359 C   0  0  0  0  0  0  0  0  0  0  0  0
   61.5976  163.1837   -6.4450 C   0  0  0  0  0  0  0  0  0  0  0  0
   60.4387  163.1139   -4.3263 C   0  0  0  0  0  0  0  0  0  0  0  0
   59.9669  161.8359   -4.6265 C   0  0  0  0  0  0  0  0  0  0  0  0
   61.2540  163.7877   -5.2356 C   0  0  0  0  0  0  0  0  0  0  0  0
   59.1802  159.6953   -3.6562 C   0  0  0  0  0  0  0  0  0  0  0  0
   57.8739  161.7835   -3.3374 C   0  0  0  0  0  0  0  0  0  0  0  0
   58.6376  159.1993   -2.3135 C   0  0  0  0  0  0  0  0  0  0  0  0
   57.3746  161.2207   -2.0047 C   0  0  0  0  0  0  0  0  0  0  0  0
   56.7759  159.2315   -0.7862 C   0  0  0  0  0  0  0  0  0  0  0  0
   56.2442  157.8264   -1.0024 C   0  0  0  0  0  0  0  0  0  0  0  0
   53.8035  156.6834   -3.5072 C   0  0  0  0  0  0  0  0  0  0  0  0
   54.9571  156.5855   -2.5277 C   0  0  0  0  0  0  0  0  0  0  0  0
   59.1487  161.1599   -3.7145 N   0  0  0  0  0  0  0  0  0  0  0  0
   57.3056  159.7546   -2.0449 N   0  0  0  0  0  0  0  0  0  0  0  0
   61.7325  165.0792   -4.9315 N   0  0  0  0  0  0  0  0  0  0  0  0
   54.1269  157.6376   -4.5112 O   0  0  0  0  0  0  0  0  0  0  0  0
   55.1838  157.8633   -1.9490 O   0  0  0  0  0  0  0  0  0  0  0  0
   61.3934  161.4356   -7.6871 H   0  0  0  0  0  0  0  0  0  0  0  0
   59.9485  160.2364   -6.0805 H   0  0  0  0  0  0  0  0  0  0  0  0
   62.2331  163.6997   -7.1603 H   0  0  0  0  0  0  0  0  0  0  0  0
   60.1707  163.5856   -3.3834 H   0  0  0  0  0  0  0  0  0  0  0  0
   60.2091  159.3342   -3.7768 H   0  0  0  0  0  0  0  0  0  0  0  0
   58.5825  159.2776   -4.4773 H   0  0  0  0  0  0  0  0  0  0  0  0
   57.1268  161.6040   -4.1220 H   0  0  0  0  0  0  0  0  0  0  0  0
   57.9988  162.8691   -3.2391 H   0  0  0  0  0  0  0  0  0  0  0  0
   58.5883  158.1041   -2.3482 H   0  0  0  0  0  0  0  0  0  0  0  0
   59.3388  159.4692   -1.5120 H   0  0  0  0  0  0  0  0  0  0  0  0
   58.0356  161.5548   -1.1935 H   0  0  0  0  0  0  0  0  0  0  0  0
   56.3800  161.6388   -1.8078 H   0  0  0  0  0  0  0  0  0  0  0  0
   55.9861  159.9057   -0.4398 H   0  0  0  0  0  0  0  0  0  0  0  0
   57.5871  159.2229   -0.0519 H   0  0  0  0  0  0  0  0  0  0  0  0
   55.8457  157.4280   -0.0642 H   0  0  0  0  0  0  0  0  0  0  0  0
   57.0241  157.1535   -1.3734 H   0  0  0  0  0  0  0  0  0  0  0  0
   52.8878  157.0125   -3.0065 H   0  0  0  0  0  0  0  0  0  0  0  0
   53.6316  155.7189   -3.9938 H   0  0  0  0  0  0  0  0  0  0  0  0
   55.8768  156.2713   -3.0312 H   0  0  0  0  0  0  0  0  0  0  0  0
   54.7184  155.8828   -1.7240 H   0  0  0  0  0  0  0  0  0  0  0  0
   62.3551  165.5316   -5.5700 H   0  0  0  0  0  0  0  0  0  0  0  0
   61.5178  165.4817   -4.0417 H   0  0  0  0  0  0  0  0  0  0  0  0
   53.3692  157.6730   -5.1168 H   0  0  0  0  0  0  0  0  0  0  0  0
  1  2  2  0  0  0  0
  1  3  1  0  0  0  0
  2  5  1  0  0  0  0
  3  6  2  0  0  0  0
  4  5  2  0  0  0  0
  4  6  1  0  0  0  0
  5 15  1  0  0  0  0
  6 17  1  0  0  0  0
  7  9  1  0  0  0  0
  7 15  1  0  0  0  0
  8 10  1  0  0  0  0
  8 15  1  0  0  0  0
  9 16  1  0  0  0  0
 10 16  1  0  0  0  0
 11 12  1  0  0  0  0
 11 16  1  0  0  0  0
 12 19  1  0  0  0  0
 13 14  1  0  0  0  0
 13 18  1  0  0  0  0
 14 19  1  0  0  0  0
  1 20  1  0  0  0  0
  2 21  1  0  0  0  0
  3 22  1  0  0  0  0
  4 23  1  0  0  0  0
  7 24  1  0  0  0  0
  7 25  1  0  0  0  0
  8 26  1  0  0  0  0
  8 27  1  0  0  0  0
  9 28  1  0  0  0  0
  9 29  1  0  0  0  0
 10 30  1  0  0  0  0
 10 31  1  0  0  0  0
 11 32  1  0  0  0  0
 11 33  1  0  0  0  0
 12 34  1  0  0  0  0
 12 35  1  0  0  0  0
 13 36  1  0  0  0  0
 13 37  1  0  0  0  0
 14 38  1  0  0  0  0
 14 39  1  0  0  0  0
 17 40  1  0  0  0  0
 17 41  1  0  0  0  0
 18 42  1  0  0  0  0
M  END
> <FRED Chemgauss4 score>
-9.072529

$$$$
C94925989	P148795160
  -OEChem-05122015073D

 38 39  0     1  0  0  0  0  0999 V2000
   59.9445  154.3810   -7.6054 C   0  0  0  0  0  0  0  0  0  0  0  0
   58.7519  153.7628   -7.2466 C   0  0  0  0  0  0  0  0  0  0  0  0
   60.0629  155.7627   -7.5040 C   0  0  0  0  0  0  0  0  0  0  0  0
   57.0298  158.4577   -2.4944 C   0  0  0  0  0  0  0  0  0  0  0  0
   55.7286  158.2571   -4.5071 C   0  0  0  0  0  0  0  0  0  0  0  0
   55.8368  158.4869   -1.7903 C   0  0  0  0  0  0  0  0  0  0  0  0
   56.9659  158.3405   -3.8784 C   0  0  0  0  0  0  0  0  0  0  0  0
   57.7157  154.5647   -6.7960 C   0  0  0  0  0  0  0  0  0  0  0  0
   58.9679  156.4751   -7.0420 C   0  0  0  0  0  0  0  0  0  0  0  0
   54.5938  158.2950   -3.7129 C   0  0  0  0  0  0  0  0  0  0  0  0
   56.4213  153.9352   -6.4016 C   0  0  0  0  0  0  0  0  0  0  0  0
   57.8007  159.9452   -6.3903 C   0  0  0  0  0  0  0  0  0  0  0  0
   58.2285  158.3026   -4.6900 C   0  0  0  0  0  0  0  0  0  0  0  0
   59.0597  157.9686   -6.9194 C   0  0  0  0  0  0  0  0  0  0  0  0
   54.6161  158.4083   -2.3659 N   0  0  0  0  0  0  0  0  0  0  0  0
   57.7933  155.9097   -6.6840 N   0  0  0  0  0  0  0  0  0  0  0  0
   53.2412  157.8190   -5.6791 N   0  0  0  0  0  0  0  0  0  0  0  0
   53.3402  158.2108   -4.3683 N   0  0  0  0  0  0  0  0  0  0  0  0
   57.9710  158.5195   -6.1131 N   0  0  2  0  0  0  0  0  0  0  0  0
   60.7793  153.7869   -7.9650 H   0  0  0  0  0  0  0  0  0  0  0  0
   58.6462  152.6858   -7.3223 H   0  0  0  0  0  0  0  0  0  0  0  0
   60.9881  156.2572   -7.7794 H   0  0  0  0  0  0  0  0  0  0  0  0
   57.9793  158.5251   -1.9746 H   0  0  0  0  0  0  0  0  0  0  0  0
   55.6602  158.1662   -5.5870 H   0  0  0  0  0  0  0  0  0  0  0  0
   55.8325  158.5778   -0.7092 H   0  0  0  0  0  0  0  0  0  0  0  0
   56.4332  153.6749   -5.3365 H   0  0  0  0  0  0  0  0  0  0  0  0
   55.5776  154.6124   -6.5857 H   0  0  0  0  0  0  0  0  0  0  0  0
   56.2299  153.0233   -6.9816 H   0  0  0  0  0  0  0  0  0  0  0  0
   57.6086  160.1006   -7.4551 H   0  0  0  0  0  0  0  0  0  0  0  0
   58.7038  160.4950   -6.1117 H   0  0  0  0  0  0  0  0  0  0  0  0
   56.9578  160.3434   -5.8189 H   0  0  0  0  0  0  0  0  0  0  0  0
   58.9279  159.0751   -4.3522 H   0  0  0  0  0  0  0  0  0  0  0  0
   58.7346  157.3372   -4.5846 H   0  0  0  0  0  0  0  0  0  0  0  0
   60.0065  158.2601   -6.4518 H   0  0  0  0  0  0  0  0  0  0  0  0
   59.0223  158.4468   -7.9038 H   0  0  0  0  0  0  0  0  0  0  0  0
   52.5813  158.4398   -6.1453 H   0  0  0  0  0  0  0  0  0  0  0  0
   52.8223  156.8903   -5.7088 H   0  0  0  0  0  0  0  0  0  0  0  0
   52.5110  158.2377   -3.7977 H   0  0  0  0  0  0  0  0  0  0  0  0
  1  2  2  0  0  0  0
  1  3  1  0  0  0  0
  2  8  1  0  0  0  0
  3  9  2  0  0  0  0
  4  6  2  0  0  0  0
  4  7  1  0  0  0  0
  5  7  2  0  0  0  0
  5 10  1  0  0  0  0
  6 15  1  0  0  0  0
  7 13  1  0  0  0  0
  8 11  1  0  0  0  0
  8 16  2  0  0  0  0
  9 14  1  0  0  0  0
  9 16  1  0  0  0  0
 10 15  2  0  0  0  0
 10 18  1  0  0  0  0
 12 19  1  0  0  0  0
 13 19  1  0  0  0  0
 14 19  1  0  0  0  0
 17 18  1  0  0  0  0
  1 20  1  0  0  0  0
  2 21  1  0  0  0  0
  3 22  1  0  0  0  0
  4 23  1  0  0  0  0
  5 24  1  0  0  0  0
  6 25  1  0  0  0  0
 11 26  1  0  0  0  0
 11 27  1  0  0  0  0
 11 28  1  0  0  0  0
 12 29  1  0  0  0  0
 12 30  1  0  0  0  0
 12 31  1  0  0  0  0
 13 32  1  0  0  0  0
 13 33  1  0  0  0  0
 14 34  1  0  0  0  0
 14 35  1  0  0  0  0
 17 36  1  0  0  0  0
 17 37  1  0  0  0  0
 18 38  1  0  0  0  0
M  END
> <FRED Chemgauss4 score>
-9.060444

$$$$
L-Methionine	P10000023
  -OEChem-05122015073D

 20 19  0     1  0  0  0  0  0999 V2000
   53.5989  156.3294   -3.3190 C   0  0  0  0  0  0  0  0  0  0  0  0
   57.6072  155.5487   -7.2868 C   0  0  0  0  0  0  0  0  0  0  0  0
   54.2898  154.4963   -5.0282 C   0  0  0  0  0  0  0  0  0  0  0  0
   55.3290  155.3342   -5.7769 C   0  0  0  0  0  0  0  0  0  0  0  0
   53.1595  155.3226   -4.3963 C   0  0  2  0  0  0  0  0  0  0  0  0
   52.3609  155.9216   -5.5119 N   0  3  0  0  0  0  0  0  0  0  0  0
   54.3858  157.2394   -3.7044 O   0  5  0  0  0  0  0  0  0  0  0  0
   53.0980  156.1438   -2.1730 O   0  0  0  0  0  0  0  0  0  0  0  0
   56.6283  154.2681   -6.4700 S   0  0  0  0  0  0  0  0  0  0  0  0
   58.4698  155.0973   -7.7831 H   0  0  0  0  0  0  0  0  0  0  0  0
   57.9597  156.2735   -6.5488 H   0  0  0  0  0  0  0  0  0  0  0  0
   56.9961  156.0648   -8.0311 H   0  0  0  0  0  0  0  0  0  0  0  0
   54.7888  153.9191   -4.2377 H   0  0  0  0  0  0  0  0  0  0  0  0
   53.8478  153.7592   -5.7115 H   0  0  0  0  0  0  0  0  0  0  0  0
   55.8118  156.0524   -5.1080 H   0  0  0  0  0  0  0  0  0  0  0  0
   54.8710  155.8907   -6.5997 H   0  0  0  0  0  0  0  0  0  0  0  0
   52.4702  154.6306   -3.8963 H   0  0  0  0  0  0  0  0  0  0  0  0
   51.8383  155.1947   -6.0024 H   0  0  0  0  0  0  0  0  0  0  0  0
   52.9792  156.3862   -6.1785 H   0  0  0  0  0  0  0  0  0  0  0  0
   51.7005  156.6081   -5.1448 H   0  0  0  0  0  0  0  0  0  0  0  0
  1  5  1  0  0  0  0
  1  7  1  0  0  0  0
  1  8  2  0  0  0  0
  2  9  1  0  0  0  0
  3  4  1  0  0  0  0
  3  5  1  0  0  0  0
  4  9  1  0  0  0  0
  5  6  1  0  0  0  0
  2 10  1  0  0  0  0
  2 11  1  0  0  0  0
  2 12  1  0  0  0  0
  3 13  1  0  0  0  0
  3 14  1  0  0  0  0
  4 15  1  0  0  0  0
  4 16  1  0  0  0  0
  5 17  1  0  0  0  0
  6 18  1  0  0  0  0
  6 19  1  0  0  0  0
  6 20  1  0  0  0  0
M  CHG  2   6   1   7  -1
M  END
> <FRED Chemgauss4 score>
-9.047699

$$$$
L-Glutamine	P10000020
  -OEChem-05122015073D

 20 19  0     1  0  0  0  0  0999 V2000
   55.3762  153.6232   -5.6743 C   0  0  0  0  0  0  0  0  0  0  0  0
   53.6439  155.9299   -2.9208 C   0  0  0  0  0  0  0  0  0  0  0  0
   55.4047  155.1373   -5.5926 C   0  0  0  0  0  0  0  0  0  0  0  0
   54.0034  155.7394   -5.4685 C   0  0  0  0  0  0  0  0  0  0  0  0
   53.2602  155.2256   -4.2315 C   0  0  2  0  0  0  0  0  0  0  0  0
   55.9312  153.1518   -6.8449 N   0  0  0  0  0  0  0  0  0  0  0  0
   51.7963  155.3676   -4.5161 N   0  3  0  0  0  0  0  0  0  0  0  0
   53.5134  157.1856   -2.9070 O   0  5  0  0  0  0  0  0  0  0  0  0
   54.9143  152.8979   -4.7985 O   0  0  0  0  0  0  0  0  0  0  0  0
   54.0626  155.1559   -2.0128 O   0  0  0  0  0  0  0  0  0  0  0  0
   56.0216  155.4164   -4.7309 H   0  0  0  0  0  0  0  0  0  0  0  0
   55.8957  155.5188   -6.4960 H   0  0  0  0  0  0  0  0  0  0  0  0
   54.0942  156.8327   -5.4141 H   0  0  0  0  0  0  0  0  0  0  0  0
   53.4305  155.5267   -6.3805 H   0  0  0  0  0  0  0  0  0  0  0  0
   53.4285  154.1471   -4.1260 H   0  0  0  0  0  0  0  0  0  0  0  0
   56.2931  153.8189   -7.5183 H   0  0  0  0  0  0  0  0  0  0  0  0
   55.9906  152.1609   -7.0569 H   0  0  0  0  0  0  0  0  0  0  0  0
   51.2665  155.3719   -3.6440 H   0  0  0  0  0  0  0  0  0  0  0  0
   51.4728  154.5897   -5.0923 H   0  0  0  0  0  0  0  0  0  0  0  0
   51.6170  156.2407   -5.0131 H   0  0  0  0  0  0  0  0  0  0  0  0
  1  3  1  0  0  0  0
  1  6  1  0  0  0  0
  1  9  2  0  0  0  0
  2  5  1  0  0  0  0
  2  8  1  0  0  0  0
  2 10  2  0  0  0  0
  3  4  1  0  0  0  0
  4  5  1  0  0  0  0
  5  7  1  0  0  0  0
  3 11  1  0  0  0  0
  3 12  1  0  0  0  0
  4 13  1  0  0  0  0
  4 14  1  0  0  0  0
  5 15  1  0  0  0  0
  6 16  1  0  0  0  0
  6 17  1  0  0  0  0
  7 18  1  0  0  0  0
  7 19  1  0  0  0  0
  7 20  1  0  0  0  0
M  CHG  2   7   1   8  -1
M  END
> <FRED Chemgauss4 score>
-9.015272

$$$$
C71321549	P110267855
  -OEChem-05122015073D

 29 30  0     0  0  0  0  0  0999 V2000
   60.3866  160.7013   -7.4010 C   0  0  0  0  0  0  0  0  0  0  0  0
   60.8160  162.0504   -7.2409 C   0  0  0  0  0  0  0  0  0  0  0  0
   55.3762  156.9781   -4.6276 C   0  0  0  0  0  0  0  0  0  0  0  0
   56.6448  158.3311   -3.0963 C   0  0  0  0  0  0  0  0  0  0  0  0
   56.5654  157.6109   -4.2831 C   0  0  0  0  0  0  0  0  0  0  0  0
   60.2546  160.0535   -6.1925 C   0  0  0  0  0  0  0  0  0  0  0  0
   54.3039  157.0949   -3.7580 C   0  0  0  0  0  0  0  0  0  0  0  0
   55.5156  158.3875   -2.2954 C   0  0  0  0  0  0  0  0  0  0  0  0
   60.9955  162.3824   -5.9159 C   0  0  0  0  0  0  0  0  0  0  0  0
   57.7216  157.5197   -5.1602 C   0  0  0  0  0  0  0  0  0  0  0  0
   59.8286  158.6374   -5.9329 C   0  0  0  0  0  0  0  0  0  0  0  0
   54.3430  157.7857   -2.5966 N   0  0  0  0  0  0  0  0  0  0  0  0
   53.0638  155.5072   -5.1232 N   0  0  0  0  0  0  0  0  0  0  0  0
   53.0989  156.4442   -4.1219 N   0  0  0  0  0  0  0  0  0  0  0  0
   58.6437  158.5716   -5.1080 N   0  0  0  0  0  0  0  0  0  0  0  0
   57.8555  156.5518   -5.9300 O   0  0  0  0  0  0  0  0  0  0  0  0
   60.6473  161.0705   -4.8720 S   0  0  0  0  0  0  0  0  0  0  0  0
   55.5205  159.2525   -0.8135 Cl  0  0  0  0  0  0  0  0  0  0  0  0
   61.5620  164.0884   -5.3026 Br  0  0  0  0  0  0  0  0  0  0  0  0
   60.1859  160.2335   -8.3564 H   0  0  0  0  0  0  0  0  0  0  0  0
   60.9819  162.7352   -8.0633 H   0  0  0  0  0  0  0  0  0  0  0  0
   55.2944  156.4107   -5.5500 H   0  0  0  0  0  0  0  0  0  0  0  0
   57.5638  158.8327   -2.8091 H   0  0  0  0  0  0  0  0  0  0  0  0
   59.6133  158.1202   -6.8743 H   0  0  0  0  0  0  0  0  0  0  0  0
   60.6205  158.0753   -5.4268 H   0  0  0  0  0  0  0  0  0  0  0  0
   52.2423  155.6896   -5.6978 H   0  0  0  0  0  0  0  0  0  0  0  0
   52.9155  154.5903   -4.7037 H   0  0  0  0  0  0  0  0  0  0  0  0
   52.3153  156.5248   -3.4946 H   0  0  0  0  0  0  0  0  0  0  0  0
   58.4543  159.3677   -4.5079 H   0  0  0  0  0  0  0  0  0  0  0  0
  1  2  1  0  0  0  0
  1  6  2  0  0  0  0
  2  9  2  0  0  0  0
  3  5  1  0  0  0  0
  3  7  2  0  0  0  0
  4  5  2  0  0  0  0
  4  8  1  0  0  0  0
  5 10  1  0  0  0  0
  6 11  1  0  0  0  0
  6 17  1  0  0  0  0
  7 12  1  0  0  0  0
  7 14  1  0  0  0  0
  8 12  2  0  0  0  0
  8 18  1  0  0  0  0
  9 17  1  0  0  0  0
  9 19  1  0  0  0  0
 10 15  1  0  0  0  0
 10 16  2  0  0  0  0
 11 15  1  0  0  0  0
 13 14  1  0  0  0  0
  1 20  1  0  0  0  0
  2 21  1  0  0  0  0
  3 22  1  0  0  0  0
  4 23  1  0  0  0  0
 11 24  1  0  0  0  0
 11 25  1  0  0  0  0
 13 26  1  0  0  0  0
 13 27  1  0  0  0  0
 14 28  1  0  0  0  0
 15 29  1  0  0  0  0
M  END
> <FRED Chemgauss4 score>
-8.981049

$$$$
cmpd10_frontiers2018	P10000039
  -OEChem-05122015073D

 48 50  0     1  0  0  0  0  0999 V2000
   56.6589  153.5811   -6.7592 C   0  0  0  0  0  0  0  0  0  0  0  0
   59.4279  159.2664   -3.3365 C   0  0  0  0  0  0  0  0  0  0  0  0
   57.1902  154.8623   -6.9060 C   0  0  0  0  0  0  0  0  0  0  0  0
   55.6427  153.3493   -5.8321 C   0  0  0  0  0  0  0  0  0  0  0  0
   59.4909  159.6266   -1.9904 C   0  0  0  0  0  0  0  0  0  0  0  0
   58.7077  160.0526   -4.2359 C   0  0  0  0  0  0  0  0  0  0  0  0
   56.7054  155.9120   -6.1257 C   0  0  0  0  0  0  0  0  0  0  0  0
   55.1580  154.3990   -5.0518 C   0  0  0  0  0  0  0  0  0  0  0  0
   58.8337  160.7730   -1.5437 C   0  0  0  0  0  0  0  0  0  0  0  0
   58.0505  161.1990   -3.7892 C   0  0  0  0  0  0  0  0  0  0  0  0
   55.6893  155.6803   -5.1985 C   0  0  0  0  0  0  0  0  0  0  0  0
   58.1135  161.5592   -2.4431 C   0  0  0  0  0  0  0  0  0  0  0  0
   53.7015  156.6179   -3.9882 C   0  0  0  0  0  0  0  0  0  0  0  0
   55.4951  159.2863   -4.3868 C   0  0  0  0  0  0  0  0  0  0  0  0
   57.6761  163.4908   -4.9894 C   0  0  0  0  0  0  0  0  0  0  0  0
   57.9669  162.4879   -6.0617 C   0  0  0  0  0  0  0  0  0  0  0  0
   57.2703  162.0416   -4.7887 C   0  0  0  0  0  0  0  0  0  0  0  0
   57.4187  162.7818   -1.9395 C   0  0  0  0  0  0  0  0  0  0  0  0
   55.8008  161.7133   -4.8799 C   0  0  0  0  0  0  0  0  0  0  0  0
   55.1634  156.8180   -4.3519 C   0  0  2  0  0  0  0  0  0  0  0  0
   52.8353  157.1318   -4.9297 N   0  0  0  0  0  0  0  0  0  0  0  0
   55.5973  160.3425   -5.2881 N   0  0  0  0  0  0  0  0  0  0  0  0
   55.3020  158.0758   -5.0475 N   0  0  0  0  0  0  0  0  0  0  0  0
   53.3283  156.0479   -2.9653 O   0  0  0  0  0  0  0  0  0  0  0  0
   55.5655  159.4052   -3.1642 O   0  0  0  0  0  0  0  0  0  0  0  0
   57.0355  152.7641   -7.3678 H   0  0  0  0  0  0  0  0  0  0  0  0
   59.9398  158.3739   -3.6842 H   0  0  0  0  0  0  0  0  0  0  0  0
   57.9806  155.0431   -7.6286 H   0  0  0  0  0  0  0  0  0  0  0  0
   55.2281  152.3521   -5.7183 H   0  0  0  0  0  0  0  0  0  0  0  0
   60.0518  159.0145   -1.2902 H   0  0  0  0  0  0  0  0  0  0  0  0
   58.6653  159.7628   -5.2826 H   0  0  0  0  0  0  0  0  0  0  0  0
   57.1255  156.9070   -6.2468 H   0  0  0  0  0  0  0  0  0  0  0  0
   54.3662  154.2091   -4.3319 H   0  0  0  0  0  0  0  0  0  0  0  0
   58.8892  161.0449   -0.4929 H   0  0  0  0  0  0  0  0  0  0  0  0
   58.5159  163.8815   -4.4259 H   0  0  0  0  0  0  0  0  0  0  0  0
   56.9010  164.2235   -5.1824 H   0  0  0  0  0  0  0  0  0  0  0  0
   57.3879  162.5470   -6.9762 H   0  0  0  0  0  0  0  0  0  0  0  0
   59.0018  162.2060   -6.2175 H   0  0  0  0  0  0  0  0  0  0  0  0
   58.0856  163.6496   -2.0000 H   0  0  0  0  0  0  0  0  0  0  0  0
   56.5153  162.9935   -2.5245 H   0  0  0  0  0  0  0  0  0  0  0  0
   57.1018  162.6561   -0.8967 H   0  0  0  0  0  0  0  0  0  0  0  0
   55.3090  162.3571   -5.6153 H   0  0  0  0  0  0  0  0  0  0  0  0
   55.3121  161.8484   -3.9105 H   0  0  0  0  0  0  0  0  0  0  0  0
   55.7448  156.8953   -3.4251 H   0  0  0  0  0  0  0  0  0  0  0  0
   53.1587  157.5905   -5.7754 H   0  0  0  0  0  0  0  0  0  0  0  0
   51.8308  157.0602   -4.8069 H   0  0  0  0  0  0  0  0  0  0  0  0
   55.5253  160.1395   -6.2803 H   0  0  0  0  0  0  0  0  0  0  0  0
   55.2101  158.0799   -6.0585 H   0  0  0  0  0  0  0  0  0  0  0  0
  1  3  1  0  0  0  0
  1  4  2  0  0  0  0
  2  5  1  0  0  0  0
  2  6  2  0  0  0  0
  3  7  2  0  0  0  0
  4  8  1  0  0  0  0
  5  9  2  0  0  0  0
  6 10  1  0  0  0  0
  7 11  1  0  0  0  0
  8 11  2  0  0  0  0
  9 12  1  0  0  0  0
 10 12  2  0  0  0  0
 10 17  1  0  0  0  0
 11 20  1  0  0  0  0
 12 18  1  0  0  0  0
 13 20  1  0  0  0  0
 13 21  1  0  0  0  0
 13 24  2  0  0  0  0
 14 22  1  0  0  0  0
 14 23  1  0  0  0  0
 14 25  2  0  0  0  0
 15 16  1  0  0  0  0
 15 17  1  0  0  0  0
 16 17  1  0  0  0  0
 17 19  1  0  0  0  0
 19 22  1  0  0  0  0
 20 23  1  0  0  0  0
  1 26  1  0  0  0  0
  2 27  1  0  0  0  0
  3 28  1  0  0  0  0
  4 29  1  0  0  0  0
  5 30  1  0  0  0  0
  6 31  1  0  0  0  0
  7 32  1  0  0  0  0
  8 33  1  0  0  0  0
  9 34  1  0  0  0  0
 15 35  1  0  0  0  0
 15 36  1  0  0  0  0
 16 37  1  0  0  0  0
 16 38  1  0  0  0  0
 18 39  1  0  0  0  0
 18 40  1  0  0  0  0
 18 41  1  0  0  0  0
 19 42  1  0  0  0  0
 19 43  1  0  0  0  0
 20 44  1  0  0  0  0
 21 45  1  0  0  0  0
 21 46  1  0  0  0  0
 22 47  1  0  0  0  0
 23 48  1  0  0  0  0
M  END
> <FRED Chemgauss4 score>
-8.953776

$$$$
C88640746	P138642871
  -OEChem-05122015073D

 35 37  0     0  0  0  0  0  0999 V2000
   55.3092  154.1094   -6.4688 C   0  0  0  0  0  0  0  0  0  0  0  0
   56.4085  153.4701   -7.0479 C   0  0  0  0  0  0  0  0  0  0  0  0
   57.8594  155.2688   -6.3346 C   0  0  0  0  0  0  0  0  0  0  0  0
   55.4689  155.3508   -5.8069 C   0  0  0  0  0  0  0  0  0  0  0  0
   54.5075  156.1867   -5.1457 C   0  0  0  0  0  0  0  0  0  0  0  0
   56.7490  155.9107   -5.7519 C   0  0  0  0  0  0  0  0  0  0  0  0
   57.6694  154.0455   -6.9802 C   0  0  0  0  0  0  0  0  0  0  0  0
   55.0635  157.3284   -4.6193 C   0  0  0  0  0  0  0  0  0  0  0  0
   54.4387  158.3925   -3.8988 C   0  0  0  0  0  0  0  0  0  0  0  0
   54.7738  162.0791   -4.2005 C   0  0  0  0  0  0  0  0  0  0  0  0
   55.8547  165.0590   -2.0582 C   0  0  0  0  0  0  0  0  0  0  0  0
   56.9033  164.4138   -2.9147 C   0  0  0  0  0  0  0  0  0  0  0  0
   55.4517  164.2993   -3.2924 C   0  0  0  0  0  0  0  0  0  0  0  0
   53.9527  160.8722   -3.8246 C   0  0  0  0  0  0  0  0  0  0  0  0
   53.1887  155.8851   -5.0487 N   0  0  0  0  0  0  0  0  0  0  0  0
   54.5132  159.6925   -4.4434 N   0  0  0  0  0  0  0  0  0  0  0  0
   54.7483  163.0403   -3.2002 N   0  0  0  0  0  0  0  0  0  0  0  0
   53.8566  158.1907   -2.8032 O   0  0  0  0  0  0  0  0  0  0  0  0
   55.3830  162.1779   -5.2624 O   0  0  0  0  0  0  0  0  0  0  0  0
   56.7409  157.4151   -4.9092 S   0  0  0  0  0  0  0  0  0  0  0  0
   59.0158  153.2454   -7.6974 Cl  0  0  0  0  0  0  0  0  0  0  0  0
   54.3294  153.6421   -6.5319 H   0  0  0  0  0  0  0  0  0  0  0  0
   56.2569  152.5183   -7.5511 H   0  0  0  0  0  0  0  0  0  0  0  0
   58.8457  155.7230   -6.2810 H   0  0  0  0  0  0  0  0  0  0  0  0
   55.6527  164.6164   -1.0905 H   0  0  0  0  0  0  0  0  0  0  0  0
   55.7770  166.1390   -2.0832 H   0  0  0  0  0  0  0  0  0  0  0  0
   57.5311  165.0594   -3.5162 H   0  0  0  0  0  0  0  0  0  0  0  0
   57.4052  163.5382   -2.5218 H   0  0  0  0  0  0  0  0  0  0  0  0
   55.1220  164.8898   -4.1404 H   0  0  0  0  0  0  0  0  0  0  0  0
   53.9588  160.7463   -2.7379 H   0  0  0  0  0  0  0  0  0  0  0  0
   52.9224  161.0029   -4.1682 H   0  0  0  0  0  0  0  0  0  0  0  0
   52.7901  155.0483   -5.4919 H   0  0  0  0  0  0  0  0  0  0  0  0
   52.5171  156.5269   -4.6098 H   0  0  0  0  0  0  0  0  0  0  0  0
   55.0453  159.8276   -5.2968 H   0  0  0  0  0  0  0  0  0  0  0  0
   54.2083  162.8494   -2.3611 H   0  0  0  0  0  0  0  0  0  0  0  0
  1  2  1  0  0  0  0
  1  4  2  0  0  0  0
  2  7  2  0  0  0  0
  3  6  2  0  0  0  0
  3  7  1  0  0  0  0
  4  5  1  0  0  0  0
  4  6  1  0  0  0  0
  5  8  2  0  0  0  0
  5 15  1  0  0  0  0
  6 20  1  0  0  0  0
  7 21  1  0  0  0  0
  8  9  1  0  0  0  0
  8 20  1  0  0  0  0
  9 16  1  0  0  0  0
  9 18  2  0  0  0  0
 10 14  1  0  0  0  0
 10 17  1  0  0  0  0
 10 19  2  0  0  0  0
 11 12  1  0  0  0  0
 11 13  1  0  0  0  0
 12 13  1  0  0  0  0
 13 17  1  0  0  0  0
 14 16  1  0  0  0  0
  1 22  1  0  0  0  0
  2 23  1  0  0  0  0
  3 24  1  0  0  0  0
 11 25  1  0  0  0  0
 11 26  1  0  0  0  0
 12 27  1  0  0  0  0
 12 28  1  0  0  0  0
 13 29  1  0  0  0  0
 14 30  1  0  0  0  0
 14 31  1  0  0  0  0
 15 32  1  0  0  0  0
 15 33  1  0  0  0  0
 16 34  1  0  0  0  0
 17 35  1  0  0  0  0
M  END
> <FRED Chemgauss4 score>
-8.820415

$$$$
C91504798	P143198797
  -OEChem-05122015073D

 31 32  0     1  0  0  0  0  0999 V2000
   55.8481  154.4736   -6.5999 C   0  0  0  0  0  0  0  0  0  0  0  0
   54.6046  153.9089   -6.7493 C   0  0  0  0  0  0  0  0  0  0  0  0
   54.4979  155.8885   -5.8006 C   0  0  0  0  0  0  0  0  0  0  0  0
   57.0052  153.7521   -7.0521 C   0  0  0  0  0  0  0  0  0  0  0  0
   55.3126  152.0305   -7.7074 C   0  0  0  0  0  0  0  0  0  0  0  0
   55.7575  158.6776   -4.6899 C   0  0  0  0  0  0  0  0  0  0  0  0
   53.8555  157.1014   -5.1658 C   0  0  0  0  0  0  0  0  0  0  0  0
   55.3105  156.8065   -3.0340 C   0  0  0  0  0  0  0  0  0  0  0  0
   54.6826  157.7855   -4.0479 C   0  0  1  0  0  0  0  0  0  0  0  0
   55.7862  155.7020   -6.0112 N   0  0  0  0  0  0  0  0  0  0  0  0
   54.2711  152.7137   -7.2844 N   0  0  0  0  0  0  0  0  0  0  0  0
   53.7396  154.8276   -6.2319 N   0  0  0  0  0  0  0  0  0  0  0  0
   56.6375  152.5165   -7.6031 N   0  0  0  0  0  0  0  0  0  0  0  0
   55.1861  150.7923   -8.2816 N   0  0  0  0  0  0  0  0  0  0  0  0
   54.3568  155.8815   -2.4344 N   0  0  0  0  0  0  0  0  0  0  0  0
   58.1508  154.1748   -6.9607 O   0  0  0  0  0  0  0  0  0  0  0  0
   53.8252  158.6557   -3.2959 O   0  0  0  0  0  0  0  0  0  0  0  0
   56.3595  159.1755   -3.9212 H   0  0  0  0  0  0  0  0  0  0  0  0
   56.4272  158.1124   -5.3454 H   0  0  0  0  0  0  0  0  0  0  0  0
   55.2970  159.4761   -5.2835 H   0  0  0  0  0  0  0  0  0  0  0  0
   53.6153  157.8298   -5.9516 H   0  0  0  0  0  0  0  0  0  0  0  0
   52.8863  156.7794   -4.7593 H   0  0  0  0  0  0  0  0  0  0  0  0
   55.8182  157.3647   -2.2384 H   0  0  0  0  0  0  0  0  0  0  0  0
   56.1047  156.2307   -3.5265 H   0  0  0  0  0  0  0  0  0  0  0  0
   52.7329  154.7441   -6.1764 H   0  0  0  0  0  0  0  0  0  0  0  0
   57.3822  151.9222   -7.9559 H   0  0  0  0  0  0  0  0  0  0  0  0
   54.2745  150.4083   -8.3763 H   0  0  0  0  0  0  0  0  0  0  0  0
   56.0106  150.3257   -8.5812 H   0  0  0  0  0  0  0  0  0  0  0  0
   53.4558  156.2300   -2.1830 H   0  0  0  0  0  0  0  0  0  0  0  0
   54.6948  154.9998   -2.1105 H   0  0  0  0  0  0  0  0  0  0  0  0
   54.3904  159.0845   -2.6386 H   0  0  0  0  0  0  0  0  0  0  0  0
  1  2  2  0  0  0  0
  1  4  1  0  0  0  0
  1 10  1  0  0  0  0
  2 11  1  0  0  0  0
  2 12  1  0  0  0  0
  3  7  1  0  0  0  0
  3 10  2  0  0  0  0
  3 12  1  0  0  0  0
  4 13  1  0  0  0  0
  4 16  2  0  0  0  0
  5 11  2  0  0  0  0
  5 13  1  0  0  0  0
  5 14  1  0  0  0  0
  6  9  1  0  0  0  0
  7  9  1  0  0  0  0
  8  9  1  0  0  0  0
  8 15  1  0  0  0  0
  9 17  1  0  0  0  0
  6 18  1  0  0  0  0
  6 19  1  0  0  0  0
  6 20  1  0  0  0  0
  7 21  1  0  0  0  0
  7 22  1  0  0  0  0
  8 23  1  0  0  0  0
  8 24  1  0  0  0  0
 12 25  1  0  0  0  0
 13 26  1  0  0  0  0
 14 27  1  0  0  0  0
 14 28  1  0  0  0  0
 15 29  1  0  0  0  0
 15 30  1  0  0  0  0
 17 31  1  0  0  0  0
M  END
> <FRED Chemgauss4 score>
-8.803617

$$$$
C70215460	P108239596
  -OEChem-05122015073D

 34 35  0     1  0  0  0  0  0999 V2000
   59.0655  159.9665   -4.0460 C   0  0  0  0  0  0  0  0  0  0  0  0
   59.5990  161.2700   -3.8304 C   0  0  0  0  0  0  0  0  0  0  0  0
   59.1765  159.5730   -5.3614 C   0  0  0  0  0  0  0  0  0  0  0  0
   60.0977  161.8230   -4.9894 C   0  0  0  0  0  0  0  0  0  0  0  0
   53.9518  156.2011   -5.9551 C   0  0  0  0  0  0  0  0  0  0  0  0
   58.7477  158.3074   -5.9818 C   0  0  0  0  0  0  0  0  0  0  0  0
   58.1745  157.2851   -5.3293 C   0  0  0  0  0  0  0  0  0  0  0  0
   57.7698  156.0298   -5.9945 C   0  0  0  0  0  0  0  0  0  0  0  0
   54.6781  157.5189   -3.1781 C   0  0  0  0  0  0  0  0  0  0  0  0
   54.7160  153.8723   -6.1850 C   0  0  0  0  0  0  0  0  0  0  0  0
   56.0559  154.4136   -6.6294 C   0  0  0  0  0  0  0  0  0  0  0  0
   55.3358  156.4852   -5.3684 C   0  0  1  0  0  0  0  0  0  0  0  0
   55.2643  156.3082   -3.8491 C   0  0  0  0  0  0  0  0  0  0  0  0
   53.7109  154.8955   -6.3201 N   0  0  0  0  0  0  0  0  0  0  0  0
   56.4199  155.6614   -5.9514 N   0  0  0  0  0  0  0  0  0  0  0  0
   53.0733  157.0647   -5.9659 O   0  0  0  0  0  0  0  0  0  0  0  0
   58.6502  155.3766   -6.5592 O   0  0  0  0  0  0  0  0  0  0  0  0
   55.1186  158.6579   -3.2164 O   0  0  0  0  0  0  0  0  0  0  0  0
   53.5552  157.1664   -2.5010 O   0  0  0  0  0  0  0  0  0  0  0  0
   59.9215  160.7725   -6.3302 S   0  0  0  0  0  0  0  0  0  0  0  0
   60.8897  163.5456   -5.1039 Br  0  0  0  0  0  0  0  0  0  0  0  0
   58.6235  159.3549   -3.2692 H   0  0  0  0  0  0  0  0  0  0  0  0
   59.6112  161.7684   -2.8693 H   0  0  0  0  0  0  0  0  0  0  0  0
   58.9413  158.2204   -7.0494 H   0  0  0  0  0  0  0  0  0  0  0  0
   57.9872  157.3254   -4.2607 H   0  0  0  0  0  0  0  0  0  0  0  0
   54.4074  153.0284   -6.8042 H   0  0  0  0  0  0  0  0  0  0  0  0
   54.7453  153.5585   -5.1417 H   0  0  0  0  0  0  0  0  0  0  0  0
   56.8678  153.6811   -6.4238 H   0  0  0  0  0  0  0  0  0  0  0  0
   56.0577  154.5494   -7.7327 H   0  0  0  0  0  0  0  0  0  0  0  0
   55.5351  157.5329   -5.6024 H   0  0  0  0  0  0  0  0  0  0  0  0
   54.6407  155.4411   -3.6253 H   0  0  0  0  0  0  0  0  0  0  0  0
   56.2732  156.1442   -3.4667 H   0  0  0  0  0  0  0  0  0  0  0  0
   52.8150  154.6529   -6.6883 H   0  0  0  0  0  0  0  0  0  0  0  0
   53.1442  157.9342   -2.0495 H   0  0  0  0  0  0  0  0  0  0  0  0
  1  2  1  0  0  0  0
  1  3  2  0  0  0  0
  2  4  2  0  0  0  0
  3  6  1  0  0  0  0
  3 20  1  0  0  0  0
  4 20  1  0  0  0  0
  4 21  1  0  0  0  0
  5 12  1  0  0  0  0
  5 14  1  0  0  0  0
  5 16  2  0  0  0  0
  6  7  2  0  0  0  0
  7  8  1  0  0  0  0
  8 15  1  0  0  0  0
  8 17  2  0  0  0  0
  9 13  1  0  0  0  0
  9 18  2  0  0  0  0
  9 19  1  0  0  0  0
 10 11  1  0  0  0  0
 10 14  1  0  0  0  0
 11 15  1  0  0  0  0
 12 13  1  0  0  0  0
 12 15  1  0  0  0  0
  1 22  1  0  0  0  0
  2 23  1  0  0  0  0
  6 24  1  0  0  0  0
  7 25  1  0  0  0  0
 10 26  1  0  0  0  0
 10 27  1  0  0  0  0
 11 28  1  0  0  0  0
 11 29  1  0  0  0  0
 12 30  1  0  0  0  0
 13 31  1  0  0  0  0
 13 32  1  0  0  0  0
 14 33  1  0  0  0  0
 19 34  1  0  0  0  0
M  END
> <FRED Chemgauss4 score>
-8.788501

$$$$
6C_CG2012	P10000021
  -OEChem-05122015073D

 22 21  0     1  0  0  0  0  0999 V2000
   53.4212  156.1100   -3.5934 C   0  0  0  0  0  0  0  0  0  0  0  0
   56.8478  155.4960   -6.2519 C   0  0  0  0  0  0  0  0  0  0  0  0
   58.9243  154.1796   -6.7721 C   0  0  0  0  0  0  0  0  0  0  0  0
   57.7909  155.0211   -7.3322 C   0  0  0  0  0  0  0  0  0  0  0  0
   54.7612  154.7934   -5.3854 C   0  0  0  0  0  0  0  0  0  0  0  0
   53.9728  156.0498   -5.0283 C   0  0  1  0  0  0  0  0  0  0  0  0
   52.9153  156.2099   -6.0768 N   0  3  0  0  0  0  0  0  0  0  0  0
   52.6186  155.1936   -3.2630 O   0  5  0  0  0  0  0  0  0  0  0  0
   53.8292  157.0955   -2.9129 O   0  0  0  0  0  0  0  0  0  0  0  0
   57.1645  156.1849   -5.2919 O   0  0  0  0  0  0  0  0  0  0  0  0
   55.5864  155.0326   -6.5189 O   0  0  0  0  0  0  0  0  0  0  0  0
   59.5146  154.7480   -6.0458 H   0  0  0  0  0  0  0  0  0  0  0  0
   58.5280  153.2912   -6.2709 H   0  0  0  0  0  0  0  0  0  0  0  0
   59.6003  153.8505   -7.5684 H   0  0  0  0  0  0  0  0  0  0  0  0
   57.2204  154.4265   -8.0537 H   0  0  0  0  0  0  0  0  0  0  0  0
   58.2074  155.8980   -7.8391 H   0  0  0  0  0  0  0  0  0  0  0  0
   54.0862  153.9632   -5.6207 H   0  0  0  0  0  0  0  0  0  0  0  0
   55.4018  154.4844   -4.5526 H   0  0  0  0  0  0  0  0  0  0  0  0
   54.6303  156.9199   -5.1458 H   0  0  0  0  0  0  0  0  0  0  0  0
   51.9940  156.2712   -5.6420 H   0  0  0  0  0  0  0  0  0  0  0  0
   52.9253  155.4110   -6.7120 H   0  0  0  0  0  0  0  0  0  0  0  0
   53.0800  157.0602   -6.6169 H   0  0  0  0  0  0  0  0  0  0  0  0
  1  6  1  0  0  0  0
  1  8  1  0  0  0  0
  1  9  2  0  0  0  0
  2  4  1  0  0  0  0
  2 10  2  0  0  0  0
  2 11  1  0  0  0  0
  3  4  1  0  0  0  0
  5  6  1  0  0  0  0
  5 11  1  0  0  0  0
  6  7  1  0  0  0  0
  3 12  1  0  0  0  0
  3 13  1  0  0  0  0
  3 14  1  0  0  0  0
  4 15  1  0  0  0  0
  4 16  1  0  0  0  0
  5 17  1  0  0  0  0
  5 18  1  0  0  0  0
  6 19  1  0  0  0  0
  7 20  1  0  0  0  0
  7 21  1  0  0  0  0
  7 22  1  0  0  0  0
M  CHG  2   7   1   8  -1
M  END
> <FRED Chemgauss4 score>
-8.758255

$$$$
C94763834	P148525057
  -OEChem-05122015073D

 42 43  0     1  0  0  0  0  0999 V2000
   55.5374  158.0654   -3.6585 C   0  0  0  0  0  0  0  0  0  0  0  0
   56.7478  158.6317   -4.0425 C   0  0  0  0  0  0  0  0  0  0  0  0
   56.1825  156.0624   -4.7668 C   0  0  0  0  0  0  0  0  0  0  0  0
   55.2416  156.7567   -4.0236 C   0  0  0  0  0  0  0  0  0  0  0  0
   57.6213  157.8533   -4.7848 C   0  0  0  0  0  0  0  0  0  0  0  0
   53.9868  156.1363   -3.6376 C   0  0  0  0  0  0  0  0  0  0  0  0
   59.6156  161.3426   -5.3224 C   0  0  0  0  0  0  0  0  0  0  0  0
   61.8421  164.0688   -4.2582 C   0  0  0  0  0  0  0  0  0  0  0  0
   62.2957  163.8708   -5.6991 C   0  0  0  0  0  0  0  0  0  0  0  0
   60.4701  163.4126   -4.2427 C   0  0  0  0  0  0  0  0  0  0  0  0
   61.7732  162.4808   -6.0335 C   0  0  0  0  0  0  0  0  0  0  0  0
   58.6511  158.6219   -7.5961 C   0  0  0  0  0  0  0  0  0  0  0  0
   58.9367  158.4332   -5.2181 C   0  0  0  0  0  0  0  0  0  0  0  0
   59.8642  160.3118   -6.3941 C   0  0  0  0  0  0  0  0  0  0  0  0
   57.3689  156.5788   -5.1583 N   0  0  0  0  0  0  0  0  0  0  0  0
   60.5683  162.3401   -5.2219 N   0  0  0  0  0  0  0  0  0  0  0  0
   52.3419  154.4627   -4.1610 N   0  0  0  0  0  0  0  0  0  0  0  0
   53.5174  155.1198   -4.4754 N   0  0  0  0  0  0  0  0  0  0  0  0
   58.7807  159.3780   -6.3380 N   0  0  1  0  0  0  0  0  0  0  0  0
   53.3625  156.4592   -2.6124 O   0  0  0  0  0  0  0  0  0  0  0  0
   58.6152  161.2703   -4.6069 O   0  0  0  0  0  0  0  0  0  0  0  0
   54.8324  158.6516   -3.0753 H   0  0  0  0  0  0  0  0  0  0  0  0
   56.9918  159.6512   -3.7638 H   0  0  0  0  0  0  0  0  0  0  0  0
   56.0084  155.0378   -5.0822 H   0  0  0  0  0  0  0  0  0  0  0  0
   62.5208  163.5375   -3.5801 H   0  0  0  0  0  0  0  0  0  0  0  0
   61.8103  165.1199   -3.9591 H   0  0  0  0  0  0  0  0  0  0  0  0
   61.8161  164.6173   -6.3437 H   0  0  0  0  0  0  0  0  0  0  0  0
   63.3787  163.9553   -5.8231 H   0  0  0  0  0  0  0  0  0  0  0  0
   60.1917  163.0200   -3.2603 H   0  0  0  0  0  0  0  0  0  0  0  0
   59.6901  164.1028   -4.5825 H   0  0  0  0  0  0  0  0  0  0  0  0
   61.5497  162.3591   -7.0968 H   0  0  0  0  0  0  0  0  0  0  0  0
   62.4788  161.7026   -5.7229 H   0  0  0  0  0  0  0  0  0  0  0  0
   58.5345  159.3098   -8.4376 H   0  0  0  0  0  0  0  0  0  0  0  0
   57.7776  157.9656   -7.5544 H   0  0  0  0  0  0  0  0  0  0  0  0
   59.5416  158.0098   -7.7628 H   0  0  0  0  0  0  0  0  0  0  0  0
   59.4146  158.9677   -4.3898 H   0  0  0  0  0  0  0  0  0  0  0  0
   59.6270  157.6456   -5.5381 H   0  0  0  0  0  0  0  0  0  0  0  0
   60.8131  159.8270   -6.1847 H   0  0  0  0  0  0  0  0  0  0  0  0
   59.8966  160.8206   -7.3531 H   0  0  0  0  0  0  0  0  0  0  0  0
   52.4496  153.4996   -4.4765 H   0  0  0  0  0  0  0  0  0  0  0  0
   52.2910  154.4209   -3.1441 H   0  0  0  0  0  0  0  0  0  0  0  0
   54.0363  154.8659   -5.3091 H   0  0  0  0  0  0  0  0  0  0  0  0
  1  2  2  0  0  0  0
  1  4  1  0  0  0  0
  2  5  1  0  0  0  0
  3  4  2  0  0  0  0
  3 15  1  0  0  0  0
  4  6  1  0  0  0  0
  5 13  1  0  0  0  0
  5 15  2  0  0  0  0
  6 18  1  0  0  0  0
  6 20  2  0  0  0  0
  7 14  1  0  0  0  0
  7 16  1  0  0  0  0
  7 21  2  0  0  0  0
  8  9  1  0  0  0  0
  8 10  1  0  0  0  0
  9 11  1  0  0  0  0
 10 16  1  0  0  0  0
 11 16  1  0  0  0  0
 12 19  1  0  0  0  0
 13 19  1  0  0  0  0
 14 19  1  0  0  0  0
 17 18  1  0  0  0  0
  1 22  1  0  0  0  0
  2 23  1  0  0  0  0
  3 24  1  0  0  0  0
  8 25  1  0  0  0  0
  8 26  1  0  0  0  0
  9 27  1  0  0  0  0
  9 28  1  0  0  0  0
 10 29  1  0  0  0  0
 10 30  1  0  0  0  0
 11 31  1  0  0  0  0
 11 32  1  0  0  0  0
 12 33  1  0  0  0  0
 12 34  1  0  0  0  0
 12 35  1  0  0  0  0
 13 36  1  0  0  0  0
 13 37  1  0  0  0  0
 14 38  1  0  0  0  0
 14 39  1  0  0  0  0
 17 40  1  0  0  0  0
 17 41  1  0  0  0  0
 18 42  1  0  0  0  0
M  END
> <FRED Chemgauss4 score>
-8.736111

$$$$
C85134048	P133209822
  -OEChem-05122015073D

 37 38  0     1  0  0  0  0  0999 V2000
   53.5044  156.1030   -3.4117 C   0  0  0  0  0  0  0  0  0  0  0  0
   54.9904  155.8857   -3.2045 C   0  0  0  0  0  0  0  0  0  0  0  0
   55.7094  155.2438   -4.3822 C   0  0  0  0  0  0  0  0  0  0  0  0
   59.7253  156.9157   -8.4024 C   0  0  0  0  0  0  0  0  0  0  0  0
   58.8082  157.8677   -7.6446 C   0  0  0  0  0  0  0  0  0  0  0  0
   59.7553  155.5359   -7.7527 C   0  0  0  0  0  0  0  0  0  0  0  0
   57.4023  157.2943   -7.5095 C   0  0  0  0  0  0  0  0  0  0  0  0
   53.8356  155.8352   -5.8886 C   0  0  0  0  0  0  0  0  0  0  0  0
   58.3478  154.9348   -7.6094 C   0  0  2  0  0  0  0  0  0  0  0  0
   55.3371  155.9683   -5.6724 C   0  0  2  0  0  0  0  0  0  0  0  0
   57.4084  155.9051   -6.8621 C   0  0  2  0  0  0  0  0  0  0  0  0
   58.4379  153.5769   -6.9055 C   0  0  0  0  0  0  0  0  0  0  0  0
   53.0639  156.1963   -4.7130 N   0  0  0  0  0  0  0  0  0  0  0  0
   56.0567  155.3959   -6.8062 N   0  0  0  0  0  0  0  0  0  0  0  0
   52.7549  156.2680   -2.4473 O   0  0  0  0  0  0  0  0  0  0  0  0
   59.2502  152.7623   -7.5922 F   0  0  0  0  0  0  0  0  0  0  0  0
   58.9229  153.7386   -5.6671 F   0  0  0  0  0  0  0  0  0  0  0  0
   57.2206  153.0223   -6.8313 F   0  0  0  0  0  0  0  0  0  0  0  0
   55.4304  156.8680   -2.9940 H   0  0  0  0  0  0  0  0  0  0  0  0
   55.1266  155.2626   -2.3135 H   0  0  0  0  0  0  0  0  0  0  0  0
   56.7919  155.2837   -4.2110 H   0  0  0  0  0  0  0  0  0  0  0  0
   55.4328  154.1831   -4.4475 H   0  0  0  0  0  0  0  0  0  0  0  0
   59.3824  156.8240   -9.4403 H   0  0  0  0  0  0  0  0  0  0  0  0
   60.7395  157.3295   -8.4348 H   0  0  0  0  0  0  0  0  0  0  0  0
   59.2228  158.0610   -6.6476 H   0  0  0  0  0  0  0  0  0  0  0  0
   58.7655  158.8308   -8.1655 H   0  0  0  0  0  0  0  0  0  0  0  0
   60.3861  154.8710   -8.3550 H   0  0  0  0  0  0  0  0  0  0  0  0
   60.2286  155.6132   -6.7653 H   0  0  0  0  0  0  0  0  0  0  0  0
   56.7907  157.9862   -6.9167 H   0  0  0  0  0  0  0  0  0  0  0  0
   56.9424  157.2427   -8.5056 H   0  0  0  0  0  0  0  0  0  0  0  0
   53.4967  156.4728   -6.7125 H   0  0  0  0  0  0  0  0  0  0  0  0
   53.5580  154.8024   -6.1323 H   0  0  0  0  0  0  0  0  0  0  0  0
   57.9485  154.7628   -8.6151 H   0  0  0  0  0  0  0  0  0  0  0  0
   55.6047  157.0284   -5.5850 H   0  0  0  0  0  0  0  0  0  0  0  0
   57.7765  156.0139   -5.8275 H   0  0  0  0  0  0  0  0  0  0  0  0
   52.1225  156.5462   -4.8626 H   0  0  0  0  0  0  0  0  0  0  0  0
   55.5792  155.6385   -7.6707 H   0  0  0  0  0  0  0  0  0  0  0  0
  1  2  1  0  0  0  0
  1 13  1  0  0  0  0
  1 15  2  0  0  0  0
  2  3  1  0  0  0  0
  3 10  1  0  0  0  0
  4  5  1  0  0  0  0
  4  6  1  0  0  0  0
  5  7  1  0  0  0  0
  6  9  1  0  0  0  0
  7 11  1  0  0  0  0
  8 10  1  0  0  0  0
  8 13  1  0  0  0  0
  9 11  1  0  0  0  0
  9 12  1  0  0  0  0
 10 14  1  0  0  0  0
 11 14  1  0  0  0  0
 12 16  1  0  0  0  0
 12 17  1  0  0  0  0
 12 18  1  0  0  0  0
  2 19  1  0  0  0  0
  2 20  1  0  0  0  0
  3 21  1  0  0  0  0
  3 22  1  0  0  0  0
  4 23  1  0  0  0  0
  4 24  1  0  0  0  0
  5 25  1  0  0  0  0
  5 26  1  0  0  0  0
  6 27  1  0  0  0  0
  6 28  1  0  0  0  0
  7 29  1  0  0  0  0
  7 30  1  0  0  0  0
  8 31  1  0  0  0  0
  8 32  1  0  0  0  0
  9 33  1  0  0  0  0
 10 34  1  0  0  0  0
 11 35  1  0  0  0  0
 13 36  1  0  0  0  0
 14 37  1  0  0  0  0
M  END
> <FRED Chemgauss4 score>
-8.714628

$$$$
C90893558	P142179225
  -OEChem-05122015073D

 37 39  0     1  0  0  0  0  0999 V2000
   55.1634  154.5585   -5.9225 C   0  0  0  0  0  0  0  0  0  0  0  0
   54.1645  155.1722   -5.1668 C   0  0  0  0  0  0  0  0  0  0  0  0
   56.4488  155.0996   -5.9500 C   0  0  0  0  0  0  0  0  0  0  0  0
   60.6724  161.1042   -6.5520 C   0  0  0  0  0  0  0  0  0  0  0  0
   61.2604  162.2434   -5.9994 C   0  0  0  0  0  0  0  0  0  0  0  0
   59.5641  162.3227   -4.2556 C   0  0  0  0  0  0  0  0  0  0  0  0
   55.7361  156.8682   -4.4664 C   0  0  0  0  0  0  0  0  0  0  0  0
   58.9970  161.1889   -4.8085 C   0  0  0  0  0  0  0  0  0  0  0  0
   54.4508  156.3270   -4.4388 C   0  0  0  0  0  0  0  0  0  0  0  0
   56.7351  156.2545   -5.2220 C   0  0  0  0  0  0  0  0  0  0  0  0
   59.5455  160.5967   -5.9345 C   0  0  0  0  0  0  0  0  0  0  0  0
   60.7104  162.8484   -4.8573 C   0  0  0  0  0  0  0  0  0  0  0  0
   57.7702  160.4630   -4.4126 C   0  0  0  0  0  0  0  0  0  0  0  0
   57.9037  159.2171   -5.3041 C   0  0  2  0  0  0  0  0  0  0  0  0
   59.0704  156.1307   -6.0534 C   0  0  0  0  0  0  0  0  0  0  0  0
   58.3729  157.9869   -4.5314 C   0  0  0  0  0  0  0  0  0  0  0  0
   53.4404  156.9476   -3.6752 N   0  0  0  0  0  0  0  0  0  0  0  0
   58.0358  156.8007   -5.2487 N   0  0  3  0  0  0  0  0  0  0  0  0
   58.8608  159.4887   -6.3616 O   0  0  0  0  0  0  0  0  0  0  0  0
   61.2964  163.9343   -4.3359 F   0  0  0  0  0  0  0  0  0  0  0  0
   54.9408  153.6592   -6.4895 H   0  0  0  0  0  0  0  0  0  0  0  0
   53.1663  154.7417   -5.1529 H   0  0  0  0  0  0  0  0  0  0  0  0
   57.2202  154.6129   -6.5415 H   0  0  0  0  0  0  0  0  0  0  0  0
   61.0896  160.6391   -7.4384 H   0  0  0  0  0  0  0  0  0  0  0  0
   62.1530  162.6649   -6.4530 H   0  0  0  0  0  0  0  0  0  0  0  0
   59.1386  162.7921   -3.3752 H   0  0  0  0  0  0  0  0  0  0  0  0
   55.9598  157.7691   -3.8992 H   0  0  0  0  0  0  0  0  0  0  0  0
   57.8062  160.2166   -3.3439 H   0  0  0  0  0  0  0  0  0  0  0  0
   56.8490  161.0154   -4.6303 H   0  0  0  0  0  0  0  0  0  0  0  0
   56.9439  158.9911   -5.7888 H   0  0  0  0  0  0  0  0  0  0  0  0
   60.0176  156.6703   -5.9722 H   0  0  0  0  0  0  0  0  0  0  0  0
   58.7714  156.1010   -7.1047 H   0  0  0  0  0  0  0  0  0  0  0  0
   59.2180  155.1060   -5.7019 H   0  0  0  0  0  0  0  0  0  0  0  0
   57.8824  157.9674   -3.5646 H   0  0  0  0  0  0  0  0  0  0  0  0
   59.4487  158.0306   -4.4061 H   0  0  0  0  0  0  0  0  0  0  0  0
   52.5119  156.5772   -3.7015 H   0  0  0  0  0  0  0  0  0  0  0  0
   53.6460  157.8008   -3.1959 H   0  0  0  0  0  0  0  0  0  0  0  0
  1  2  1  0  0  0  0
  1  3  2  0  0  0  0
  2  9  2  0  0  0  0
  3 10  1  0  0  0  0
  4  5  2  0  0  0  0
  4 11  1  0  0  0  0
  5 12  1  0  0  0  0
  6  8  1  0  0  0  0
  6 12  2  0  0  0  0
  7  9  1  0  0  0  0
  7 10  2  0  0  0  0
  8 11  2  0  0  0  0
  8 13  1  0  0  0  0
  9 17  1  0  0  0  0
 10 18  1  0  0  0  0
 11 19  1  0  0  0  0
 12 20  1  0  0  0  0
 13 14  1  0  0  0  0
 14 16  1  0  0  0  0
 14 19  1  0  0  0  0
 15 18  1  0  0  0  0
 16 18  1  0  0  0  0
  1 21  1  0  0  0  0
  2 22  1  0  0  0  0
  3 23  1  0  0  0  0
  4 24  1  0  0  0  0
  5 25  1  0  0  0  0
  6 26  1  0  0  0  0
  7 27  1  0  0  0  0
 13 28  1  0  0  0  0
 13 29  1  0  0  0  0
 14 30  1  0  0  0  0
 15 31  1  0  0  0  0
 15 32  1  0  0  0  0
 15 33  1  0  0  0  0
 16 34  1  0  0  0  0
 16 35  1  0  0  0  0
 17 36  1  0  0  0  0
 17 37  1  0  0  0  0
M  END
> <FRED Chemgauss4 score>
-8.707791

$$$$
C87213202	P136472540
  -OEChem-05122015073D

 41 43  0     1  0  0  0  0  0999 V2000
   56.3903  155.3058   -6.9657 C   0  0  0  0  0  0  0  0  0  0  0  0
   55.0258  155.1821   -6.6858 C   0  0  0  0  0  0  0  0  0  0  0  0
   56.8723  156.0338   -4.6792 C   0  0  0  0  0  0  0  0  0  0  0  0
   57.3032  155.7267   -5.9736 C   0  0  0  0  0  0  0  0  0  0  0  0
   54.6257  155.4898   -5.4052 C   0  0  0  0  0  0  0  0  0  0  0  0
   55.5252  155.9047   -4.4277 C   0  0  0  0  0  0  0  0  0  0  0  0
   53.4401  155.8644   -3.4827 C   0  0  0  0  0  0  0  0  0  0  0  0
   59.3933  161.4407   -3.7605 C   0  0  0  0  0  0  0  0  0  0  0  0
   59.0252  160.7895   -5.0700 C   0  0  0  0  0  0  0  0  0  0  0  0
   59.1603  160.3153   -2.7750 C   0  0  0  0  0  0  0  0  0  0  0  0
   59.5683  159.3849   -4.8726 C   0  0  2  0  0  0  0  0  0  0  0  0
   60.2418  155.7130   -8.1925 C   0  0  0  0  0  0  0  0  0  0  0  0
   58.8549  158.3377   -5.7054 C   0  0  0  0  0  0  0  0  0  0  0  0
   59.4687  156.9486   -5.5031 C   0  0  0  0  0  0  0  0  0  0  0  0
   58.7523  155.8452   -6.3152 C   0  0  2  0  0  0  0  0  0  0  0  0
   53.3487  155.4599   -4.8446 N   0  0  0  0  0  0  0  0  0  0  0  0
   54.8176  156.1375   -3.2484 N   0  0  0  0  0  0  0  0  0  0  0  0
   58.8996  156.0639   -7.7428 N   0  0  0  0  0  0  0  0  0  0  0  0
   52.5235  155.9580   -2.6791 O   0  0  0  0  0  0  0  0  0  0  0  0
   59.4108  159.0873   -3.4750 O   0  0  0  0  0  0  0  0  0  0  0  0
   56.7484  155.0720   -7.9660 H   0  0  0  0  0  0  0  0  0  0  0  0
   54.3248  154.8595   -7.4463 H   0  0  0  0  0  0  0  0  0  0  0  0
   57.5653  156.3582   -3.9113 H   0  0  0  0  0  0  0  0  0  0  0  0
   60.4541  161.7181   -3.7681 H   0  0  0  0  0  0  0  0  0  0  0  0
   58.8078  162.3353   -3.5332 H   0  0  0  0  0  0  0  0  0  0  0  0
   57.9341  160.7784   -5.1810 H   0  0  0  0  0  0  0  0  0  0  0  0
   59.4537  161.2927   -5.9411 H   0  0  0  0  0  0  0  0  0  0  0  0
   59.8136  160.3811   -1.9004 H   0  0  0  0  0  0  0  0  0  0  0  0
   58.1199  160.2970   -2.4336 H   0  0  0  0  0  0  0  0  0  0  0  0
   60.6437  159.3612   -5.0882 H   0  0  0  0  0  0  0  0  0  0  0  0
   60.4491  154.6625   -7.9724 H   0  0  0  0  0  0  0  0  0  0  0  0
   60.9850  156.3325   -7.6834 H   0  0  0  0  0  0  0  0  0  0  0  0
   60.3327  155.8712   -9.2705 H   0  0  0  0  0  0  0  0  0  0  0  0
   57.7943  158.3272   -5.4299 H   0  0  0  0  0  0  0  0  0  0  0  0
   58.9138  158.6199   -6.7631 H   0  0  0  0  0  0  0  0  0  0  0  0
   60.5245  156.9809   -5.8028 H   0  0  0  0  0  0  0  0  0  0  0  0
   59.4515  156.7025   -4.4334 H   0  0  0  0  0  0  0  0  0  0  0  0
   59.2780  154.8927   -6.1225 H   0  0  0  0  0  0  0  0  0  0  0  0
   52.5052  155.1928   -5.3368 H   0  0  0  0  0  0  0  0  0  0  0  0
   55.2170  156.4490   -2.3717 H   0  0  0  0  0  0  0  0  0  0  0  0
   58.7241  157.0470   -7.9564 H   0  0  0  0  0  0  0  0  0  0  0  0
  1  2  2  0  0  0  0
  1  4  1  0  0  0  0
  2  5  1  0  0  0  0
  3  4  2  0  0  0  0
  3  6  1  0  0  0  0
  4 15  1  0  0  0  0
  5  6  2  0  0  0  0
  5 16  1  0  0  0  0
  6 17  1  0  0  0  0
  7 16  1  0  0  0  0
  7 17  1  0  0  0  0
  7 19  2  0  0  0  0
  8  9  1  0  0  0  0
  8 10  1  0  0  0  0
  9 11  1  0  0  0  0
 10 20  1  0  0  0  0
 11 13  1  0  0  0  0
 11 20  1  0  0  0  0
 12 18  1  0  0  0  0
 13 14  1  0  0  0  0
 14 15  1  0  0  0  0
 15 18  1  0  0  0  0
  1 21  1  0  0  0  0
  2 22  1  0  0  0  0
  3 23  1  0  0  0  0
  8 24  1  0  0  0  0
  8 25  1  0  0  0  0
  9 26  1  0  0  0  0
  9 27  1  0  0  0  0
 10 28  1  0  0  0  0
 10 29  1  0  0  0  0
 11 30  1  0  0  0  0
 12 31  1  0  0  0  0
 12 32  1  0  0  0  0
 12 33  1  0  0  0  0
 13 34  1  0  0  0  0
 13 35  1  0  0  0  0
 14 36  1  0  0  0  0
 14 37  1  0  0  0  0
 15 38  1  0  0  0  0
 16 39  1  0  0  0  0
 17 40  1  0  0  0  0
 18 41  1  0  0  0  0
M  END
> <FRED Chemgauss4 score>
-8.704923

$$$$
C98309401	P156374145
  -OEChem-05122015073D

 36 37  0     1  0  0  0  0  0999 V2000
   57.1373  153.3482   -7.3906 C   0  0  0  0  0  0  0  0  0  0  0  0
   57.6077  154.5450   -7.0211 C   0  0  0  0  0  0  0  0  0  0  0  0
   55.7335  153.0478   -7.3095 C   0  0  0  0  0  0  0  0  0  0  0  0
   58.2996  160.5541   -2.9052 C   0  0  0  0  0  0  0  0  0  0  0  0
   57.4375  159.4103   -2.7290 C   0  0  0  0  0  0  0  0  0  0  0  0
   57.7766  161.7221   -3.2927 C   0  0  0  0  0  0  0  0  0  0  0  0
   54.8826  153.9755   -6.8577 C   0  0  0  0  0  0  0  0  0  0  0  0
   56.1160  159.4975   -2.9475 C   0  0  0  0  0  0  0  0  0  0  0  0
   56.6711  155.5931   -6.5123 C   0  0  0  0  0  0  0  0  0  0  0  0
   55.5261  160.8044   -3.3825 C   0  0  0  0  0  0  0  0  0  0  0  0
   55.3066  158.2820   -2.7440 C   0  0  0  0  0  0  0  0  0  0  0  0
   54.3424  156.1970   -5.9777 C   0  0  0  0  0  0  0  0  0  0  0  0
   55.0527  155.9470   -3.5434 C   0  0  0  0  0  0  0  0  0  0  0  0
   53.8945  155.9237   -4.5412 C   0  0  1  0  0  0  0  0  0  0  0  0
   56.4301  161.8468   -3.5256 N   0  0  0  0  0  0  0  0  0  0  0  0
   55.3058  155.2413   -6.4552 N   0  0  0  0  0  0  0  0  0  0  0  0
   55.6964  157.2421   -3.5632 N   0  0  0  0  0  0  0  0  0  0  0  0
   57.1294  156.6842   -6.1771 O   0  0  0  0  0  0  0  0  0  0  0  0
   54.3209  160.9174   -3.5928 O   0  0  0  0  0  0  0  0  0  0  0  0
   54.4011  158.2655   -1.9174 O   0  0  0  0  0  0  0  0  0  0  0  0
   52.9316  156.9031   -4.1517 O   0  0  0  0  0  0  0  0  0  0  0  0
   57.8045  152.5781   -7.7612 H   0  0  0  0  0  0  0  0  0  0  0  0
   58.6627  154.7852   -7.0781 H   0  0  0  0  0  0  0  0  0  0  0  0
   55.3895  152.0682   -7.6196 H   0  0  0  0  0  0  0  0  0  0  0  0
   59.3610  160.4425   -2.7186 H   0  0  0  0  0  0  0  0  0  0  0  0
   57.9101  158.4860   -2.4118 H   0  0  0  0  0  0  0  0  0  0  0  0
   58.3728  162.6133   -3.4415 H   0  0  0  0  0  0  0  0  0  0  0  0
   53.8185  153.7806   -6.7845 H   0  0  0  0  0  0  0  0  0  0  0  0
   53.4894  156.1727   -6.6631 H   0  0  0  0  0  0  0  0  0  0  0  0
   54.8185  157.1801   -6.0503 H   0  0  0  0  0  0  0  0  0  0  0  0
   55.8026  155.1888   -3.7916 H   0  0  0  0  0  0  0  0  0  0  0  0
   54.6881  155.7557   -2.5289 H   0  0  0  0  0  0  0  0  0  0  0  0
   53.3953  154.9475   -4.5081 H   0  0  0  0  0  0  0  0  0  0  0  0
   56.0861  162.7570   -3.8175 H   0  0  0  0  0  0  0  0  0  0  0  0
   56.4674  157.3924   -4.2067 H   0  0  0  0  0  0  0  0  0  0  0  0
   52.1898  156.8186   -4.7695 H   0  0  0  0  0  0  0  0  0  0  0  0
  1  2  2  0  0  0  0
  1  3  1  0  0  0  0
  2  9  1  0  0  0  0
  3  7  2  0  0  0  0
  4  5  1  0  0  0  0
  4  6  2  0  0  0  0
  5  8  2  0  0  0  0
  6 15  1  0  0  0  0
  7 16  1  0  0  0  0
  8 10  1  0  0  0  0
  8 11  1  0  0  0  0
  9 16  1  0  0  0  0
  9 18  2  0  0  0  0
 10 15  1  0  0  0  0
 10 19  2  0  0  0  0
 11 17  1  0  0  0  0
 11 20  2  0  0  0  0
 12 14  1  0  0  0  0
 12 16  1  0  0  0  0
 13 14  1  0  0  0  0
 13 17  1  0  0  0  0
 14 21  1  0  0  0  0
  1 22  1  0  0  0  0
  2 23  1  0  0  0  0
  3 24  1  0  0  0  0
  4 25  1  0  0  0  0
  5 26  1  0  0  0  0
  6 27  1  0  0  0  0
  7 28  1  0  0  0  0
 12 29  1  0  0  0  0
 12 30  1  0  0  0  0
 13 31  1  0  0  0  0
 13 32  1  0  0  0  0
 14 33  1  0  0  0  0
 15 34  1  0  0  0  0
 17 35  1  0  0  0  0
 21 36  1  0  0  0  0
M  END
> <FRED Chemgauss4 score>
-8.704261

$$$$
C71791139	P111281991
  -OEChem-05122015073D

 21 21  0     1  0  0  0  0  0999 V2000
   55.6770  155.0242   -5.9867 C   0  0  0  0  0  0  0  0  0  0  0  0
   56.1701  156.3695   -5.8223 C   0  0  0  0  0  0  0  0  0  0  0  0
   54.4204  154.6985   -5.6510 C   0  0  0  0  0  0  0  0  0  0  0  0
   55.4916  157.2757   -5.1028 C   0  0  0  0  0  0  0  0  0  0  0  0
   53.4563  155.7102   -5.0812 C   0  0  1  0  0  0  0  0  0  0  0  0
   54.1619  156.9551   -4.4597 C   0  0  2  0  0  0  0  0  0  0  0  0
   52.4954  156.1547   -6.1422 N   0  3  0  0  0  0  0  0  0  0  0  0
   53.2782  156.3029   -2.1646 O   0  5  0  0  0  0  0  0  0  0  0  0
   55.4902  155.4750   -2.8727 O   0  0  0  0  0  0  0  0  0  0  0  0
   55.1868  157.8572   -2.3129 O   0  0  0  0  0  0  0  0  0  0  0  0
   53.3110  158.0992   -4.5144 O   0  0  0  0  0  0  0  0  0  0  0  0
   54.5787  156.6062   -2.7496 S   0  0  0  0  0  0  0  0  0  0  0  0
   56.3607  154.2751   -6.3712 H   0  0  0  0  0  0  0  0  0  0  0  0
   57.0879  156.6397   -6.3315 H   0  0  0  0  0  0  0  0  0  0  0  0
   54.0908  153.6669   -5.7611 H   0  0  0  0  0  0  0  0  0  0  0  0
   55.8976  158.2800   -5.0121 H   0  0  0  0  0  0  0  0  0  0  0  0
   52.8489  155.1916   -4.3517 H   0  0  0  0  0  0  0  0  0  0  0  0
   51.6139  155.6449   -6.0597 H   0  0  0  0  0  0  0  0  0  0  0  0
   52.8860  155.9811   -7.0702 H   0  0  0  0  0  0  0  0  0  0  0  0
   52.3031  157.1540   -6.0517 H   0  0  0  0  0  0  0  0  0  0  0  0
   52.4789  157.8400   -4.0917 H   0  0  0  0  0  0  0  0  0  0  0  0
  1  2  1  0  0  0  0
  1  3  2  0  0  0  0
  2  4  2  0  0  0  0
  3  5  1  0  0  0  0
  4  6  1  0  0  0  0
  5  6  1  0  0  0  0
  5  7  1  0  0  0  0
  6 11  1  0  0  0  0
  6 12  1  0  0  0  0
  8 12  1  0  0  0  0
  9 12  2  0  0  0  0
 10 12  2  0  0  0  0
  1 13  1  0  0  0  0
  2 14  1  0  0  0  0
  3 15  1  0  0  0  0
  4 16  1  0  0  0  0
  5 17  1  0  0  0  0
  7 18  1  0  0  0  0
  7 19  1  0  0  0  0
  7 20  1  0  0  0  0
 11 21  1  0  0  0  0
M  CHG  2   7   1   8  -1
M  END
> <FRED Chemgauss4 score>
-8.680287

$$$$
C89491263	P139889590
  -OEChem-05122015073D

 40 41  0     1  0  0  0  0  0999 V2000
   57.1258  155.9002   -5.9309 C   0  0  0  0  0  0  0  0  0  0  0  0
   54.4729  155.1739   -6.3971 C   0  0  0  0  0  0  0  0  0  0  0  0
   56.1172  156.8611   -5.8615 C   0  0  0  0  0  0  0  0  0  0  0  0
   54.7907  156.4980   -6.0945 C   0  0  0  0  0  0  0  0  0  0  0  0
   56.8081  154.5761   -6.2336 C   0  0  0  0  0  0  0  0  0  0  0  0
   55.4817  154.2130   -6.4666 C   0  0  0  0  0  0  0  0  0  0  0  0
   58.5681  161.6724   -2.9498 C   0  0  0  0  0  0  0  0  0  0  0  0
   58.8559  160.6300   -4.0297 C   0  0  0  0  0  0  0  0  0  0  0  0
   57.1902  161.3348   -2.3803 C   0  0  0  0  0  0  0  0  0  0  0  0
   57.5130  159.9504   -4.2999 C   0  0  2  0  0  0  0  0  0  0  0  0
   56.8645  159.9377   -2.9107 C   0  0  2  0  0  0  0  0  0  0  0  0
   57.6719  158.5715   -4.9218 C   0  0  0  0  0  0  0  0  0  0  0  0
   55.3704  159.6541   -2.9274 C   0  0  0  0  0  0  0  0  0  0  0  0
   58.8253  153.8428   -7.2583 C   0  0  0  0  0  0  0  0  0  0  0  0
   53.7534  157.4549   -6.0279 N   0  0  0  0  0  0  0  0  0  0  0  0
   56.4573  158.1803   -5.5589 N   0  0  0  0  0  0  0  0  0  0  0  0
   55.1737  158.2516   -2.9849 O   0  0  0  0  0  0  0  0  0  0  0  0
   57.7931  153.6392   -6.3008 O   0  0  0  0  0  0  0  0  0  0  0  0
   55.1702  152.9428   -6.7593 F   0  0  0  0  0  0  0  0  0  0  0  0
   59.6898  152.8004   -7.1566 F   0  0  0  0  0  0  0  0  0  0  0  0
   58.2945  153.7831   -8.5043 F   0  0  0  0  0  0  0  0  0  0  0  0
   58.1618  156.1781   -5.7505 H   0  0  0  0  0  0  0  0  0  0  0  0
   53.4431  154.8786   -6.5807 H   0  0  0  0  0  0  0  0  0  0  0  0
   59.3380  161.6388   -2.1711 H   0  0  0  0  0  0  0  0  0  0  0  0
   58.5696  162.6848   -3.3678 H   0  0  0  0  0  0  0  0  0  0  0  0
   59.2744  161.0848   -4.9335 H   0  0  0  0  0  0  0  0  0  0  0  0
   59.5911  159.9081   -3.6532 H   0  0  0  0  0  0  0  0  0  0  0  0
   57.1831  161.3682   -1.2862 H   0  0  0  0  0  0  0  0  0  0  0  0
   56.4581  162.0700   -2.7368 H   0  0  0  0  0  0  0  0  0  0  0  0
   56.9252  160.5810   -4.9808 H   0  0  0  0  0  0  0  0  0  0  0  0
   57.3597  159.1914   -2.2744 H   0  0  0  0  0  0  0  0  0  0  0  0
   57.9092  157.8573   -4.1417 H   0  0  0  0  0  0  0  0  0  0  0  0
   58.4653  158.6007   -5.6593 H   0  0  0  0  0  0  0  0  0  0  0  0
   54.9091  160.1156   -3.8025 H   0  0  0  0  0  0  0  0  0  0  0  0
   54.9027  160.0435   -2.0212 H   0  0  0  0  0  0  0  0  0  0  0  0
   59.3817  154.7742   -7.1076 H   0  0  0  0  0  0  0  0  0  0  0  0
   52.8197  157.1746   -6.2450 H   0  0  0  0  0  0  0  0  0  0  0  0
   53.9858  158.4113   -5.8579 H   0  0  0  0  0  0  0  0  0  0  0  0
   55.7793  158.9007   -5.8167 H   0  0  0  0  0  0  0  0  0  0  0  0
   54.2137  158.0995   -2.9944 H   0  0  0  0  0  0  0  0  0  0  0  0
  1  3  1  0  0  0  0
  1  5  2  0  0  0  0
  2  4  1  0  0  0  0
  2  6  2  0  0  0  0
  3  4  2  0  0  0  0
  3 16  1  0  0  0  0
  4 15  1  0  0  0  0
  5  6  1  0  0  0  0
  5 18  1  0  0  0  0
  6 19  1  0  0  0  0
  7  8  1  0  0  0  0
  7  9  1  0  0  0  0
  8 10  1  0  0  0  0
  9 11  1  0  0  0  0
 10 11  1  0  0  0  0
 10 12  1  0  0  0  0
 11 13  1  0  0  0  0
 12 16  1  0  0  0  0
 13 17  1  0  0  0  0
 14 18  1  0  0  0  0
 14 20  1  0  0  0  0
 14 21  1  0  0  0  0
  1 22  1  0  0  0  0
  2 23  1  0  0  0  0
  7 24  1  0  0  0  0
  7 25  1  0  0  0  0
  8 26  1  0  0  0  0
  8 27  1  0  0  0  0
  9 28  1  0  0  0  0
  9 29  1  0  0  0  0
 10 30  1  0  0  0  0
 11 31  1  0  0  0  0
 12 32  1  0  0  0  0
 12 33  1  0  0  0  0
 13 34  1  0  0  0  0
 13 35  1  0  0  0  0
 14 36  1  0  0  0  0
 15 37  1  0  0  0  0
 15 38  1  0  0  0  0
 16 39  1  0  0  0  0
 17 40  1  0  0  0  0
M  END
> <FRED Chemgauss4 score>
-8.673287

$$$$
C79928687	P124912760
  -OEChem-05122015073D

 37 39  0     1  0  0  0  0  0999 V2000
   59.7259  161.4577   -1.1896 C   0  0  0  0  0  0  0  0  0  0  0  0
   58.7820  162.0246   -0.3325 C   0  0  0  0  0  0  0  0  0  0  0  0
   59.3152  160.8017   -2.3520 C   0  0  0  0  0  0  0  0  0  0  0  0
   57.4232  161.9382   -0.6334 C   0  0  0  0  0  0  0  0  0  0  0  0
   57.9546  160.7112   -2.6603 C   0  0  0  0  0  0  0  0  0  0  0  0
   57.0158  161.2816   -1.7963 C   0  0  0  0  0  0  0  0  0  0  0  0
   57.4853  160.0336   -3.8664 C   0  0  0  0  0  0  0  0  0  0  0  0
   56.1777  159.9499   -4.1570 C   0  0  0  0  0  0  0  0  0  0  0  0
   55.1625  160.5594   -3.2358 C   0  0  0  0  0  0  0  0  0  0  0  0
   53.4923  155.8319   -3.3262 C   0  0  0  0  0  0  0  0  0  0  0  0
   54.9443  155.5267   -3.6009 C   0  0  0  0  0  0  0  0  0  0  0  0
   54.9544  155.2186   -5.0961 C   0  0  0  0  0  0  0  0  0  0  0  0
   53.8107  156.0549   -5.6567 C   0  0  2  0  0  0  0  0  0  0  0  0
   55.6627  159.2623   -5.3834 C   0  0  0  0  0  0  0  0  0  0  0  0
   54.2549  157.4478   -6.0831 C   0  0  0  0  0  0  0  0  0  0  0  0
   55.6492  161.1902   -2.1071 N   0  0  0  0  0  0  0  0  0  0  0  0
   52.8912  156.1170   -4.5475 N   0  0  0  0  0  0  0  0  0  0  0  0
   54.8052  158.1967   -4.9511 N   0  0  0  0  0  0  0  0  0  0  0  0
   53.9611  160.4892   -3.4916 O   0  0  0  0  0  0  0  0  0  0  0  0
   52.9713  155.8544   -2.2218 O   0  0  0  0  0  0  0  0  0  0  0  0
   60.7836  161.5268   -0.9520 H   0  0  0  0  0  0  0  0  0  0  0  0
   59.1064  162.5339    0.5703 H   0  0  0  0  0  0  0  0  0  0  0  0
   60.0655  160.3664   -3.0073 H   0  0  0  0  0  0  0  0  0  0  0  0
   56.6962  162.3829    0.0406 H   0  0  0  0  0  0  0  0  0  0  0  0
   58.2313  159.5972   -4.5234 H   0  0  0  0  0  0  0  0  0  0  0  0
   55.5442  156.4113   -3.3666 H   0  0  0  0  0  0  0  0  0  0  0  0
   55.2840  154.6741   -3.0080 H   0  0  0  0  0  0  0  0  0  0  0  0
   55.9222  155.4219   -5.5641 H   0  0  0  0  0  0  0  0  0  0  0  0
   54.7329  154.1531   -5.2405 H   0  0  0  0  0  0  0  0  0  0  0  0
   53.3230  155.5585   -6.4982 H   0  0  0  0  0  0  0  0  0  0  0  0
   56.5095  158.8735   -5.9476 H   0  0  0  0  0  0  0  0  0  0  0  0
   55.1108  159.9847   -5.9835 H   0  0  0  0  0  0  0  0  0  0  0  0
   53.4079  158.0159   -6.4791 H   0  0  0  0  0  0  0  0  0  0  0  0
   55.0305  157.3891   -6.8525 H   0  0  0  0  0  0  0  0  0  0  0  0
   54.9819  161.6111   -1.4668 H   0  0  0  0  0  0  0  0  0  0  0  0
   51.9071  156.3451   -4.6478 H   0  0  0  0  0  0  0  0  0  0  0  0
   54.0217  158.5689   -4.4010 H   0  0  0  0  0  0  0  0  0  0  0  0
  1  2  1  0  0  0  0
  1  3  2  0  0  0  0
  2  4  2  0  0  0  0
  3  5  1  0  0  0  0
  4  6  1  0  0  0  0
  5  6  2  0  0  0  0
  5  7  1  0  0  0  0
  6 16  1  0  0  0  0
  7  8  2  0  0  0  0
  8  9  1  0  0  0  0
  8 14  1  0  0  0  0
  9 16  1  0  0  0  0
  9 19  2  0  0  0  0
 10 11  1  0  0  0  0
 10 17  1  0  0  0  0
 10 20  2  0  0  0  0
 11 12  1  0  0  0  0
 12 13  1  0  0  0  0
 13 15  1  0  0  0  0
 13 17  1  0  0  0  0
 14 18  1  0  0  0  0
 15 18  1  0  0  0  0
  1 21  1  0  0  0  0
  2 22  1  0  0  0  0
  3 23  1  0  0  0  0
  4 24  1  0  0  0  0
  7 25  1  0  0  0  0
 11 26  1  0  0  0  0
 11 27  1  0  0  0  0
 12 28  1  0  0  0  0
 12 29  1  0  0  0  0
 13 30  1  0  0  0  0
 14 31  1  0  0  0  0
 14 32  1  0  0  0  0
 15 33  1  0  0  0  0
 15 34  1  0  0  0  0
 16 35  1  0  0  0  0
 17 36  1  0  0  0  0
 18 37  1  0  0  0  0
M  END
> <FRED Chemgauss4 score>
-8.668379

$$$$
C61875170	P94810310
  -OEChem-05122015073D

 33 34  0     0  0  0  0  0  0999 V2000
   58.2532  159.2899   -3.8272 C   0  0  0  0  0  0  0  0  0  0  0  0
   58.8337  159.9732   -2.7625 C   0  0  0  0  0  0  0  0  0  0  0  0
   58.6958  160.8140   -0.4656 C   0  0  0  0  0  0  0  0  0  0  0  0
   56.9755  158.7623   -3.6885 C   0  0  0  0  0  0  0  0  0  0  0  0
   57.9806  160.9525    0.7151 C   0  0  0  0  0  0  0  0  0  0  0  0
   58.1354  160.1307   -1.5533 C   0  0  0  0  0  0  0  0  0  0  0  0
   56.8378  159.5976   -1.4053 C   0  0  0  0  0  0  0  0  0  0  0  0
   56.2814  158.9191   -2.4862 C   0  0  0  0  0  0  0  0  0  0  0  0
   56.7182  160.3969    0.7654 C   0  0  0  0  0  0  0  0  0  0  0  0
   55.9129  160.5215    2.0154 C   0  0  0  0  0  0  0  0  0  0  0  0
   53.4830  156.8620   -5.7080 C   0  0  0  0  0  0  0  0  0  0  0  0
   53.9954  157.8629   -4.6929 C   0  0  0  0  0  0  0  0  0  0  0  0
   56.1413  159.7304   -0.2607 N   0  0  0  0  0  0  0  0  0  0  0  0
   55.0412  158.3881   -2.4001 N   0  5  0  0  0  0  0  0  0  0  0  0
   52.3359  156.1070   -5.1478 N   0  3  0  0  0  0  0  0  0  0  0  0
   53.4308  156.3873   -2.6906 O   0  0  0  0  0  0  0  0  0  0  0  0
   55.6883  156.2419   -3.6870 O   0  0  0  0  0  0  0  0  0  0  0  0
   54.6015  157.0908   -3.2071 S   0  0  0  0  0  0  0  0  0  0  0  0
   58.7962  159.1702   -4.7597 H   0  0  0  0  0  0  0  0  0  0  0  0
   59.8346  160.3824   -2.8813 H   0  0  0  0  0  0  0  0  0  0  0  0
   59.6932  161.2425   -0.5331 H   0  0  0  0  0  0  0  0  0  0  0  0
   56.5330  158.2305   -4.5284 H   0  0  0  0  0  0  0  0  0  0  0  0
   58.4067  161.4796    1.5615 H   0  0  0  0  0  0  0  0  0  0  0  0
   55.3057  161.4342    1.9882 H   0  0  0  0  0  0  0  0  0  0  0  0
   55.2437  159.6614    2.1447 H   0  0  0  0  0  0  0  0  0  0  0  0
   56.5585  160.5585    2.9023 H   0  0  0  0  0  0  0  0  0  0  0  0
   53.1097  157.3683   -6.6028 H   0  0  0  0  0  0  0  0  0  0  0  0
   54.2404  156.1260   -5.9923 H   0  0  0  0  0  0  0  0  0  0  0  0
   54.8416  158.4179   -5.1099 H   0  0  0  0  0  0  0  0  0  0  0  0
   53.2242  158.5802   -4.3964 H   0  0  0  0  0  0  0  0  0  0  0  0
   52.6500  155.2368   -4.7048 H   0  0  0  0  0  0  0  0  0  0  0  0
   51.6637  155.8622   -5.8831 H   0  0  0  0  0  0  0  0  0  0  0  0
   51.8419  156.6613   -4.4400 H   0  0  0  0  0  0  0  0  0  0  0  0
  1  2  2  0  0  0  0
  1  4  1  0  0  0  0
  2  6  1  0  0  0  0
  3  5  2  0  0  0  0
  3  6  1  0  0  0  0
  4  8  2  0  0  0  0
  5  9  1  0  0  0  0
  6  7  2  0  0  0  0
  7  8  1  0  0  0  0
  7 13  1  0  0  0  0
  8 14  1  0  0  0  0
  9 10  1  0  0  0  0
  9 13  2  0  0  0  0
 11 12  1  0  0  0  0
 11 15  1  0  0  0  0
 12 18  1  0  0  0  0
 14 18  1  0  0  0  0
 16 18  2  0  0  0  0
 17 18  2  0  0  0  0
  1 19  1  0  0  0  0
  2 20  1  0  0  0  0
  3 21  1  0  0  0  0
  4 22  1  0  0  0  0
  5 23  1  0  0  0  0
 10 24  1  0  0  0  0
 10 25  1  0  0  0  0
 10 26  1  0  0  0  0
 11 27  1  0  0  0  0
 11 28  1  0  0  0  0
 12 29  1  0  0  0  0
 12 30  1  0  0  0  0
 15 31  1  0  0  0  0
 15 32  1  0  0  0  0
 15 33  1  0  0  0  0
M  CHG  2  14  -1  15   1
M  END
> <FRED Chemgauss4 score>
-8.629133

$$$$
C90107205	P140837949
  -OEChem-05122015073D

 35 35  0     0  0  0  0  0  0999 V2000
   54.1702  154.4975   -6.4192 C   0  0  0  0  0  0  0  0  0  0  0  0
   56.5698  154.6485   -6.6558 C   0  0  0  0  0  0  0  0  0  0  0  0
   54.1355  155.8054   -5.9357 C   0  0  0  0  0  0  0  0  0  0  0  0
   55.3179  156.5349   -5.8124 C   0  0  0  0  0  0  0  0  0  0  0  0
   55.3873  153.9190   -6.7792 C   0  0  0  0  0  0  0  0  0  0  0  0
   56.5351  155.9565   -6.1724 C   0  0  0  0  0  0  0  0  0  0  0  0
   54.8086  158.2914   -4.0808 C   0  0  0  0  0  0  0  0  0  0  0  0
   54.9390  159.8044   -3.9566 C   0  0  0  0  0  0  0  0  0  0  0  0
   58.9990  161.9428   -2.8498 C   0  0  0  0  0  0  0  0  0  0  0  0
   60.5074  162.0882   -3.0056 C   0  0  0  0  0  0  0  0  0  0  0  0
   56.3833  160.2712   -4.0924 C   0  0  0  0  0  0  0  0  0  0  0  0
   58.2765  162.2531   -4.1549 C   0  0  0  0  0  0  0  0  0  0  0  0
   52.8897  156.3690   -5.5777 N   0  0  0  0  0  0  0  0  0  0  0  0
   55.2729  157.8612   -5.3207 N   0  0  0  0  0  0  0  0  0  0  0  0
   54.3480  157.6011   -3.1774 O   0  0  0  0  0  0  0  0  0  0  0  0
   61.1298  161.7744   -1.7675 O   0  0  0  0  0  0  0  0  0  0  0  0
   56.4890  162.0779   -3.9529 S   0  0  0  0  0  0  0  0  0  0  0  0
   55.4301  152.3051   -7.3756 Cl  0  0  0  0  0  0  0  0  0  0  0  0
   58.0254  156.8213   -6.0365 Cl  0  0  0  0  0  0  0  0  0  0  0  0
   53.2467  153.9304   -6.5147 H   0  0  0  0  0  0  0  0  0  0  0  0
   57.5180  154.1952   -6.9369 H   0  0  0  0  0  0  0  0  0  0  0  0
   54.5331  160.0956   -2.9796 H   0  0  0  0  0  0  0  0  0  0  0  0
   54.3159  160.2605   -4.7362 H   0  0  0  0  0  0  0  0  0  0  0  0
   58.7729  160.9229   -2.5126 H   0  0  0  0  0  0  0  0  0  0  0  0
   58.6586  162.6104   -2.0476 H   0  0  0  0  0  0  0  0  0  0  0  0
   60.8889  161.4042   -3.7704 H   0  0  0  0  0  0  0  0  0  0  0  0
   60.7745  163.1138   -3.2794 H   0  0  0  0  0  0  0  0  0  0  0  0
   57.0106  159.8239   -3.3145 H   0  0  0  0  0  0  0  0  0  0  0  0
   56.7951  159.9738   -5.0625 H   0  0  0  0  0  0  0  0  0  0  0  0
   58.6020  161.5707   -4.9466 H   0  0  0  0  0  0  0  0  0  0  0  0
   58.4897  163.2762   -4.4804 H   0  0  0  0  0  0  0  0  0  0  0  0
   52.0573  155.8370   -5.7226 H   0  0  0  0  0  0  0  0  0  0  0  0
   52.8569  157.3204   -5.2762 H   0  0  0  0  0  0  0  0  0  0  0  0
   55.6254  158.5730   -5.9571 H   0  0  0  0  0  0  0  0  0  0  0  0
   62.0862  161.8764   -1.9005 H   0  0  0  0  0  0  0  0  0  0  0  0
  1  3  2  0  0  0  0
  1  5  1  0  0  0  0
  2  5  2  0  0  0  0
  2  6  1  0  0  0  0
  3  4  1  0  0  0  0
  3 13  1  0  0  0  0
  4  6  2  0  0  0  0
  4 14  1  0  0  0  0
  5 18  1  0  0  0  0
  6 19  1  0  0  0  0
  7  8  1  0  0  0  0
  7 14  1  0  0  0  0
  7 15  2  0  0  0  0
  8 11  1  0  0  0  0
  9 10  1  0  0  0  0
  9 12  1  0  0  0  0
 10 16  1  0  0  0  0
 11 17  1  0  0  0  0
 12 17  1  0  0  0  0
  1 20  1  0  0  0  0
  2 21  1  0  0  0  0
  8 22  1  0  0  0  0
  8 23  1  0  0  0  0
  9 24  1  0  0  0  0
  9 25  1  0  0  0  0
 10 26  1  0  0  0  0
 10 27  1  0  0  0  0
 11 28  1  0  0  0  0
 11 29  1  0  0  0  0
 12 30  1  0  0  0  0
 12 31  1  0  0  0  0
 13 32  1  0  0  0  0
 13 33  1  0  0  0  0
 14 34  1  0  0  0  0
 16 35  1  0  0  0  0
M  END
> <FRED Chemgauss4 score>
-8.611639

$$$$
V-9302
  -OEChem-05122015073D

 78 81  0     1  0  0  0  0  0999 V2000
   56.3582  165.8693   -2.2141 C   0  0  0  0  0  0  0  0  0  0  0  0
   61.3587  162.8651   -6.0530 C   0  0  0  0  0  0  0  0  0  0  0  0
   55.1190  166.4717   -2.4310 C   0  0  0  0  0  0  0  0  0  0  0  0
   61.9196  162.7685   -4.7796 C   0  0  0  0  0  0  0  0  0  0  0  0
   52.7311  162.8208   -8.8357 C   0  0  0  0  0  0  0  0  0  0  0  0
   57.4129  158.9407    0.1446 C   0  0  0  0  0  0  0  0  0  0  0  0
   56.8565  164.9478   -3.1351 C   0  0  0  0  0  0  0  0  0  0  0  0
   60.0379  162.4698   -6.2652 C   0  0  0  0  0  0  0  0  0  0  0  0
   51.9019  161.7207   -8.6173 C   0  0  0  0  0  0  0  0  0  0  0  0
   57.0529  159.6834    1.2690 C   0  0  0  0  0  0  0  0  0  0  0  0
   53.0378  163.6830   -7.7829 C   0  0  0  0  0  0  0  0  0  0  0  0
   58.2942  159.4783   -0.7935 C   0  0  0  0  0  0  0  0  0  0  0  0
   54.3780  166.1525   -3.5689 C   0  0  0  0  0  0  0  0  0  0  0  0
   61.1597  162.2767   -3.7183 C   0  0  0  0  0  0  0  0  0  0  0  0
   51.6859  162.3449   -6.2933 C   0  0  0  0  0  0  0  0  0  0  0  0
   58.4553  161.5014    0.5173 C   0  0  0  0  0  0  0  0  0  0  0  0
   51.3792  161.4828   -7.3461 C   0  0  0  0  0  0  0  0  0  0  0  0
   57.5740  160.9637    1.4554 C   0  0  0  0  0  0  0  0  0  0  0  0
   52.5151  163.4451   -6.5118 C   0  0  0  0  0  0  0  0  0  0  0  0
   58.8154  160.7587   -0.6071 C   0  0  0  0  0  0  0  0  0  0  0  0
   56.1156  164.6287   -4.2729 C   0  0  0  0  0  0  0  0  0  0  0  0
   59.2780  161.9780   -5.2040 C   0  0  0  0  0  0  0  0  0  0  0  0
   54.8763  165.2310   -4.4899 C   0  0  0  0  0  0  0  0  0  0  0  0
   59.8389  161.8814   -3.9305 C   0  0  0  0  0  0  0  0  0  0  0  0
   54.3513  158.6723   -4.2217 C   0  0  0  0  0  0  0  0  0  0  0  0
   50.4939  160.3054   -7.1131 C   0  0  0  0  0  0  0  0  0  0  0  0
   57.1898  161.7566    2.6587 C   0  0  0  0  0  0  0  0  0  0  0  0
   56.6675  163.6344   -5.2532 C   0  0  0  0  0  0  0  0  0  0  0  0
   57.8582  161.5570   -5.4510 C   0  0  0  0  0  0  0  0  0  0  0  0
   52.8446  164.3730   -5.3795 C   0  0  0  0  0  0  0  0  0  0  0  0
   59.7629  161.3372   -1.6167 C   0  0  0  0  0  0  0  0  0  0  0  0
   55.8135  160.5330   -3.3612 C   0  0  0  0  0  0  0  0  0  0  0  0
   55.6769  161.6003   -4.4446 C   0  0  0  0  0  0  0  0  0  0  0  0
   54.5236  159.7332   -3.1495 C   0  0  2  0  0  0  0  0  0  0  0  0
   54.5897  159.0273   -1.8677 N   0  0  0  0  0  0  0  0  0  0  0  0
   56.9064  162.3226   -4.6314 N   0  0  0  0  0  0  0  0  0  0  0  0
   54.8272  157.5446   -4.1784 O   0  0  0  0  0  0  0  0  0  0  0  0
   53.6190  159.1190   -5.2751 O   0  0  0  0  0  0  0  0  0  0  0  0
   54.1396  164.9298   -5.5957 O   0  0  0  0  0  0  0  0  0  0  0  0
   59.1107  161.4025   -2.8832 O   0  0  0  0  0  0  0  0  0  0  0  0
   56.9354  166.1171   -1.3278 H   0  0  0  0  0  0  0  0  0  0  0  0
   61.9503  163.2475   -6.8799 H   0  0  0  0  0  0  0  0  0  0  0  0
   54.7310  167.1884   -1.7133 H   0  0  0  0  0  0  0  0  0  0  0  0
   62.9482  163.0755   -4.6150 H   0  0  0  0  0  0  0  0  0  0  0  0
   53.1381  163.0059   -9.8256 H   0  0  0  0  0  0  0  0  0  0  0  0
   57.0070  157.9437   -0.0004 H   0  0  0  0  0  0  0  0  0  0  0  0
   57.8225  164.4829   -2.9561 H   0  0  0  0  0  0  0  0  0  0  0  0
   59.6107  162.5476   -7.2615 H   0  0  0  0  0  0  0  0  0  0  0  0
   51.6689  161.0540   -9.4436 H   0  0  0  0  0  0  0  0  0  0  0  0
   56.3659  159.2561    1.9949 H   0  0  0  0  0  0  0  0  0  0  0  0
   53.6841  164.5381   -7.9625 H   0  0  0  0  0  0  0  0  0  0  0  0
   58.5686  158.8928   -1.6670 H   0  0  0  0  0  0  0  0  0  0  0  0
   53.4132  166.6250   -3.7324 H   0  0  0  0  0  0  0  0  0  0  0  0
   61.6021  162.2038   -2.7285 H   0  0  0  0  0  0  0  0  0  0  0  0
   51.2795  162.1594   -5.3019 H   0  0  0  0  0  0  0  0  0  0  0  0
   58.8628  162.4991    0.6625 H   0  0  0  0  0  0  0  0  0  0  0  0
   51.0894  159.4313   -6.8225 H   0  0  0  0  0  0  0  0  0  0  0  0
   49.7627  160.5076   -6.3197 H   0  0  0  0  0  0  0  0  0  0  0  0
   49.9217  160.0525   -8.0153 H   0  0  0  0  0  0  0  0  0  0  0  0
   57.8860  161.5610    3.4834 H   0  0  0  0  0  0  0  0  0  0  0  0
   57.1969  162.8334    2.4454 H   0  0  0  0  0  0  0  0  0  0  0  0
   56.1747  161.5060    2.9935 H   0  0  0  0  0  0  0  0  0  0  0  0
   55.9740  163.4902   -6.0888 H   0  0  0  0  0  0  0  0  0  0  0  0
   57.6164  163.9829   -5.6744 H   0  0  0  0  0  0  0  0  0  0  0  0
   57.5900  161.7020   -6.5032 H   0  0  0  0  0  0  0  0  0  0  0  0
   57.7179  160.4951   -5.2230 H   0  0  0  0  0  0  0  0  0  0  0  0
   52.1130  165.1855   -5.3133 H   0  0  0  0  0  0  0  0  0  0  0  0
   52.8390  163.8366   -4.4245 H   0  0  0  0  0  0  0  0  0  0  0  0
   60.0787  162.3447   -1.3252 H   0  0  0  0  0  0  0  0  0  0  0  0
   60.6605  160.7159   -1.7064 H   0  0  0  0  0  0  0  0  0  0  0  0
   56.0985  161.0245   -2.4209 H   0  0  0  0  0  0  0  0  0  0  0  0
   56.6430  159.8614   -3.6218 H   0  0  0  0  0  0  0  0  0  0  0  0
   55.4191  161.1555   -5.4101 H   0  0  0  0  0  0  0  0  0  0  0  0
   54.9072  162.3320   -4.1804 H   0  0  0  0  0  0  0  0  0  0  0  0
   53.6498  160.3932   -3.1250 H   0  0  0  0  0  0  0  0  0  0  0  0
   54.0320  158.2108   -1.7577 H   0  0  0  0  0  0  0  0  0  0  0  0
   55.0200  159.4944   -1.1019 H   0  0  0  0  0  0  0  0  0  0  0  0
   53.4944  158.4757   -6.0050 H   0  0  0  0  0  0  0  0  0  0  0  0
  1  3  2  0  0  0  0
  1  7  1  0  0  0  0
  2  4  2  0  0  0  0
  2  8  1  0  0  0  0
  3 13  1  0  0  0  0
  4 14  1  0  0  0  0
  5  9  2  0  0  0  0
  5 11  1  0  0  0  0
  6 10  2  0  0  0  0
  6 12  1  0  0  0  0
  7 21  2  0  0  0  0
  8 22  2  0  0  0  0
  9 17  1  0  0  0  0
 10 18  1  0  0  0  0
 11 19  2  0  0  0  0
 12 20  2  0  0  0  0
 13 23  2  0  0  0  0
 14 24  2  0  0  0  0
 15 17  2  0  0  0  0
 15 19  1  0  0  0  0
 16 18  2  0  0  0  0
 16 20  1  0  0  0  0
 17 26  1  0  0  0  0
 18 27  1  0  0  0  0
 19 30  1  0  0  0  0
 20 31  1  0  0  0  0
 21 23  1  0  0  0  0
 21 28  1  0  0  0  0
 22 24  1  0  0  0  0
 22 29  1  0  0  0  0
 23 39  1  0  0  0  0
 24 40  1  0  0  0  0
 25 34  1  0  0  0  0
 25 37  2  0  0  0  0
 25 38  1  0  0  0  0
 28 36  1  0  0  0  0
 29 36  1  0  0  0  0
 30 39  1  0  0  0  0
 31 40  1  0  0  0  0
 32 33  1  0  0  0  0
 32 34  1  0  0  0  0
 33 36  1  0  0  0  0
 34 35  1  0  0  0  0
  1 41  1  0  0  0  0
  2 42  1  0  0  0  0
  3 43  1  0  0  0  0
  4 44  1  0  0  0  0
  5 45  1  0  0  0  0
  6 46  1  0  0  0  0
  7 47  1  0  0  0  0
  8 48  1  0  0  0  0
  9 49  1  0  0  0  0
 10 50  1  0  0  0  0
 11 51  1  0  0  0  0
 12 52  1  0  0  0  0
 13 53  1  0  0  0  0
 14 54  1  0  0  0  0
 15 55  1  0  0  0  0
 16 56  1  0  0  0  0
 26 57  1  0  0  0  0
 26 58  1  0  0  0  0
 26 59  1  0  0  0  0
 27 60  1  0  0  0  0
 27 61  1  0  0  0  0
 27 62  1  0  0  0  0
 28 63  1  0  0  0  0
 28 64  1  0  0  0  0
 29 65  1  0  0  0  0
 29 66  1  0  0  0  0
 30 67  1  0  0  0  0
 30 68  1  0  0  0  0
 31 69  1  0  0  0  0
 31 70  1  0  0  0  0
 32 71  1  0  0  0  0
 32 72  1  0  0  0  0
 33 73  1  0  0  0  0
 33 74  1  0  0  0  0
 34 75  1  0  0  0  0
 35 76  1  0  0  0  0
 35 77  1  0  0  0  0
 38 78  1  0  0  0  0
M  END
> <FRED Chemgauss4 score>
-8.603789

$$$$
C55060960	P82932939
  -OEChem-05122015073D

 47 49  0     1  0  0  0  0  0999 V2000
   57.5233  162.6371   -0.6937 C   0  0  0  0  0  0  0  0  0  0  0  0
   56.9494  163.8742   -0.3928 C   0  0  0  0  0  0  0  0  0  0  0  0
   56.6316  164.3127   -2.7485 C   0  0  0  0  0  0  0  0  0  0  0  0
   57.6538  162.2322   -2.0254 C   0  0  0  0  0  0  0  0  0  0  0  0
   57.2057  163.0752   -3.0461 C   0  0  0  0  0  0  0  0  0  0  0  0
   56.5048  164.7099   -1.4179 C   0  0  0  0  0  0  0  0  0  0  0  0
   58.2485  160.9461   -2.3807 C   0  0  0  0  0  0  0  0  0  0  0  0
   58.3711  160.5629   -3.6611 C   0  0  0  0  0  0  0  0  0  0  0  0
   57.8932  161.4611   -4.7637 C   0  0  0  0  0  0  0  0  0  0  0  0
   58.1908  157.2498   -5.2934 C   0  0  0  0  0  0  0  0  0  0  0  0
   53.2770  155.6599   -3.9985 C   0  0  0  0  0  0  0  0  0  0  0  0
   56.3083  155.0163   -7.7621 C   0  0  0  0  0  0  0  0  0  0  0  0
   57.4927  155.7343   -7.1248 C   0  0  0  0  0  0  0  0  0  0  0  0
   55.4402  154.3297   -6.7067 C   0  0  0  0  0  0  0  0  0  0  0  0
   56.1225  155.9249   -5.0124 C   0  0  0  0  0  0  0  0  0  0  0  0
   57.0139  156.6672   -6.0142 C   0  0  1  0  0  0  0  0  0  0  0  0
   58.9705  159.2614   -4.0575 C   0  0  0  0  0  0  0  0  0  0  0  0
   54.1134  154.6272   -4.7182 C   0  0  0  0  0  0  0  0  0  0  0  0
   57.3375  162.6674   -4.3835 N   0  0  0  0  0  0  0  0  0  0  0  0
   54.9843  155.2879   -5.6903 N   0  0  2  0  0  0  0  0  0  0  0  0
   52.0877  155.9149   -4.6469 N   0  0  0  0  0  0  0  0  0  0  0  0
   57.9702  158.5169   -4.7883 N   0  0  0  0  0  0  0  0  0  0  0  0
   58.0004  161.1208   -5.9411 O   0  0  0  0  0  0  0  0  0  0  0  0
   59.2246  156.5986   -5.1996 O   0  0  0  0  0  0  0  0  0  0  0  0
   53.5972  156.1798   -2.9331 O   0  0  0  0  0  0  0  0  0  0  0  0
   55.9553  165.8955   -1.1231 F   0  0  0  0  0  0  0  0  0  0  0  0
   57.8638  162.0000    0.1187 H   0  0  0  0  0  0  0  0  0  0  0  0
   56.8489  164.1871    0.6425 H   0  0  0  0  0  0  0  0  0  0  0  0
   56.2822  164.9710   -3.5391 H   0  0  0  0  0  0  0  0  0  0  0  0
   58.5897  160.3067   -1.5725 H   0  0  0  0  0  0  0  0  0  0  0  0
   55.7025  155.7380   -8.3246 H   0  0  0  0  0  0  0  0  0  0  0  0
   56.6707  154.2743   -8.4826 H   0  0  0  0  0  0  0  0  0  0  0  0
   58.1947  154.9930   -6.7205 H   0  0  0  0  0  0  0  0  0  0  0  0
   58.0429  156.2986   -7.8872 H   0  0  0  0  0  0  0  0  0  0  0  0
   54.5745  153.8862   -7.2135 H   0  0  0  0  0  0  0  0  0  0  0  0
   56.0036  153.5082   -6.2447 H   0  0  0  0  0  0  0  0  0  0  0  0
   56.7110  155.1806   -4.4575 H   0  0  0  0  0  0  0  0  0  0  0  0
   55.7545  156.6481   -4.2729 H   0  0  0  0  0  0  0  0  0  0  0  0
   56.4527  157.5025   -6.4532 H   0  0  0  0  0  0  0  0  0  0  0  0
   59.2714  158.7153   -3.1601 H   0  0  0  0  0  0  0  0  0  0  0  0
   59.8447  159.4443   -4.6873 H   0  0  0  0  0  0  0  0  0  0  0  0
   53.4796  153.9185   -5.2580 H   0  0  0  0  0  0  0  0  0  0  0  0
   54.7378  154.0944   -3.9959 H   0  0  0  0  0  0  0  0  0  0  0  0
   57.0059  163.2940   -5.1115 H   0  0  0  0  0  0  0  0  0  0  0  0
   51.8498  155.4341   -5.5080 H   0  0  0  0  0  0  0  0  0  0  0  0
   51.4091  156.5830   -4.2954 H   0  0  0  0  0  0  0  0  0  0  0  0
   57.0617  158.9455   -4.9376 H   0  0  0  0  0  0  0  0  0  0  0  0
  1  2  1  0  0  0  0
  1  4  2  0  0  0  0
  2  6  2  0  0  0  0
  3  5  2  0  0  0  0
  3  6  1  0  0  0  0
  4  5  1  0  0  0  0
  4  7  1  0  0  0  0
  5 19  1  0  0  0  0
  6 26  1  0  0  0  0
  7  8  2  0  0  0  0
  8  9  1  0  0  0  0
  8 17  1  0  0  0  0
  9 19  1  0  0  0  0
  9 23  2  0  0  0  0
 10 16  1  0  0  0  0
 10 22  1  0  0  0  0
 10 24  2  0  0  0  0
 11 18  1  0  0  0  0
 11 21  1  0  0  0  0
 11 25  2  0  0  0  0
 12 13  1  0  0  0  0
 12 14  1  0  0  0  0
 13 16  1  0  0  0  0
 14 20  1  0  0  0  0
 15 16  1  0  0  0  0
 15 20  1  0  0  0  0
 17 22  1  0  0  0  0
 18 20  1  0  0  0  0
  1 27  1  0  0  0  0
  2 28  1  0  0  0  0
  3 29  1  0  0  0  0
  7 30  1  0  0  0  0
 12 31  1  0  0  0  0
 12 32  1  0  0  0  0
 13 33  1  0  0  0  0
 13 34  1  0  0  0  0
 14 35  1  0  0  0  0
 14 36  1  0  0  0  0
 15 37  1  0  0  0  0
 15 38  1  0  0  0  0
 16 39  1  0  0  0  0
 17 40  1  0  0  0  0
 17 41  1  0  0  0  0
 18 42  1  0  0  0  0
 18 43  1  0  0  0  0
 19 44  1  0  0  0  0
 21 45  1  0  0  0  0
 21 46  1  0  0  0  0
 22 47  1  0  0  0  0
M  END
> <FRED Chemgauss4 score>
-8.601484

$$$$
C86106023	P134821924
  -OEChem-05122015073D

 41 42  0     1  0  0  0  0  0999 V2000
   56.2818  155.0889   -5.1751 C   0  0  0  0  0  0  0  0  0  0  0  0
   55.1530  154.0789   -7.0088 C   0  0  0  0  0  0  0  0  0  0  0  0
   55.0461  155.4687   -4.6630 C   0  0  0  0  0  0  0  0  0  0  0  0
   56.3449  154.3805   -6.3699 C   0  0  0  0  0  0  0  0  0  0  0  0
   53.9124  155.1185   -5.3784 C   0  0  0  0  0  0  0  0  0  0  0  0
   54.9883  156.2244   -3.3853 C   0  0  0  0  0  0  0  0  0  0  0  0
   56.9749  158.7233   -0.1703 C   0  0  0  0  0  0  0  0  0  0  0  0
   56.3619  157.5969   -1.0071 C   0  0  0  0  0  0  0  0  0  0  0  0
   56.6505  160.0255   -0.9144 C   0  0  2  0  0  0  0  0  0  0  0  0
   56.4822  159.5934   -2.3838 C   0  0  2  0  0  0  0  0  0  0  0  0
   55.7005  158.2804   -2.2052 C   0  0  1  0  0  0  0  0  0  0  0  0
   57.8046  159.4246   -3.1392 C   0  0  0  0  0  0  0  0  0  0  0  0
   57.7498  161.4679    0.8002 C   0  0  0  0  0  0  0  0  0  0  0  0
   57.6652  161.1273   -0.6522 C   0  0  0  0  0  0  0  0  0  0  0  0
   53.9340  154.4309   -6.5422 N   0  0  0  0  0  0  0  0  0  0  0  0
   52.4330  156.7566   -4.3536 N   0  0  0  0  0  0  0  0  0  0  0  0
   52.6491  155.5014   -4.8627 N   0  0  0  0  0  0  0  0  0  0  0  0
   55.6460  157.4465   -3.3714 N   0  0  0  0  0  0  0  0  0  0  0  0
   54.3967  155.7365   -2.4259 O   0  0  0  0  0  0  0  0  0  0  0  0
   57.9985  153.8483   -7.0976 Br  0  0  0  0  0  0  0  0  0  0  0  0
   57.1931  155.3470   -4.6402 H   0  0  0  0  0  0  0  0  0  0  0  0
   55.1329  153.5280   -7.9445 H   0  0  0  0  0  0  0  0  0  0  0  0
   56.5696  158.7220    0.8466 H   0  0  0  0  0  0  0  0  0  0  0  0
   58.0575  158.5685   -0.0903 H   0  0  0  0  0  0  0  0  0  0  0  0
   57.1173  156.8510   -1.2973 H   0  0  0  0  0  0  0  0  0  0  0  0
   55.5989  157.0735   -0.4081 H   0  0  0  0  0  0  0  0  0  0  0  0
   55.6728  160.3944   -0.5647 H   0  0  0  0  0  0  0  0  0  0  0  0
   55.8788  160.2897   -2.8744 H   0  0  0  0  0  0  0  0  0  0  0  0
   54.6247  158.5134   -1.9632 H   0  0  0  0  0  0  0  0  0  0  0  0
   58.4367  158.6976   -2.6284 H   0  0  0  0  0  0  0  0  0  0  0  0
   58.3316  160.3779   -3.1878 H   0  0  0  0  0  0  0  0  0  0  0  0
   57.6133  159.0747   -4.1540 H   0  0  0  0  0  0  0  0  0  0  0  0
   56.7666  161.7926    1.1608 H   0  0  0  0  0  0  0  0  0  0  0  0
   58.4599  162.2844    0.9690 H   0  0  0  0  0  0  0  0  0  0  0  0
   58.0563  160.5962    1.3880 H   0  0  0  0  0  0  0  0  0  0  0  0
   58.6470  160.8038   -1.0096 H   0  0  0  0  0  0  0  0  0  0  0  0
   57.3830  162.0180   -1.2207 H   0  0  0  0  0  0  0  0  0  0  0  0
   51.9009  156.6599   -3.4900 H   0  0  0  0  0  0  0  0  0  0  0  0
   51.8319  157.2684   -4.9982 H   0  0  0  0  0  0  0  0  0  0  0  0
   51.8605  154.9108   -5.0699 H   0  0  0  0  0  0  0  0  0  0  0  0
   56.1672  157.7540   -4.1881 H   0  0  0  0  0  0  0  0  0  0  0  0
  1  3  1  0  0  0  0
  1  4  2  0  0  0  0
  2  4  1  0  0  0  0
  2 15  2  0  0  0  0
  3  5  2  0  0  0  0
  3  6  1  0  0  0  0
  4 20  1  0  0  0  0
  5 15  1  0  0  0  0
  5 17  1  0  0  0  0
  6 18  1  0  0  0  0
  6 19  2  0  0  0  0
  7  8  1  0  0  0  0
  7  9  1  0  0  0  0
  8 11  1  0  0  0  0
  9 10  1  0  0  0  0
  9 14  1  0  0  0  0
 10 11  1  0  0  0  0
 10 12  1  0  0  0  0
 11 18  1  0  0  0  0
 13 14  1  0  0  0  0
 16 17  1  0  0  0  0
  1 21  1  0  0  0  0
  2 22  1  0  0  0  0
  7 23  1  0  0  0  0
  7 24  1  0  0  0  0
  8 25  1  0  0  0  0
  8 26  1  0  0  0  0
  9 27  1  0  0  0  0
 10 28  1  0  0  0  0
 11 29  1  0  0  0  0
 12 30  1  0  0  0  0
 12 31  1  0  0  0  0
 12 32  1  0  0  0  0
 13 33  1  0  0  0  0
 13 34  1  0  0  0  0
 13 35  1  0  0  0  0
 14 36  1  0  0  0  0
 14 37  1  0  0  0  0
 16 38  1  0  0  0  0
 16 39  1  0  0  0  0
 17 40  1  0  0  0  0
 18 41  1  0  0  0  0
M  END
> <FRED Chemgauss4 score>
-8.584966

$$$$
C97373805	P154225540
  -OEChem-05122015073D

 46 48  0     1  0  0  0  0  0999 V2000
   55.2817  153.8539   -4.7199 C   0  0  0  0  0  0  0  0  0  0  0  0
   55.0251  155.6623   -6.3013 C   0  0  0  0  0  0  0  0  0  0  0  0
   55.2175  152.9315   -5.7642 C   0  0  0  0  0  0  0  0  0  0  0  0
   54.9610  154.7399   -7.3457 C   0  0  0  0  0  0  0  0  0  0  0  0
   61.3911  164.0154   -5.1840 C   0  0  0  0  0  0  0  0  0  0  0  0
   60.7508  163.1235   -4.3564 C   0  0  0  0  0  0  0  0  0  0  0  0
   61.1801  162.2310   -6.3251 C   0  0  0  0  0  0  0  0  0  0  0  0
   55.1854  155.2193   -4.9884 C   0  0  0  0  0  0  0  0  0  0  0  0
   55.0572  153.3745   -7.0771 C   0  0  0  0  0  0  0  0  0  0  0  0
   53.8802  156.5233   -3.2879 C   0  0  0  0  0  0  0  0  0  0  0  0
   57.8656  158.5461   -5.2798 C   0  0  0  0  0  0  0  0  0  0  0  0
   56.5111  159.7766   -3.7092 C   0  0  0  0  0  0  0  0  0  0  0  0
   57.2273  157.2366   -4.8038 C   0  0  0  0  0  0  0  0  0  0  0  0
   55.8722  158.4670   -3.2344 C   0  0  0  0  0  0  0  0  0  0  0  0
   60.0035  160.7351   -4.6702 C   0  0  0  0  0  0  0  0  0  0  0  0
   58.4799  160.7942   -4.6600 C   0  0  0  0  0  0  0  0  0  0  0  0
   55.2565  156.2199   -3.8564 C   0  0  2  0  0  0  0  0  0  0  0  0
   61.6553  163.4539   -6.4081 N   0  0  0  0  0  0  0  0  0  0  0  0
   60.6222  161.9852   -5.1013 N   0  0  0  0  0  0  0  0  0  0  0  0
   57.8736  159.5448   -4.2040 N   0  0  0  0  0  0  0  0  0  0  0  0
   55.8643  157.4690   -4.3110 N   0  0  0  0  0  0  0  0  0  0  0  0
   53.0021  157.0132   -4.2311 N   0  0  0  0  0  0  0  0  0  0  0  0
   53.5768  156.3416   -2.1109 O   0  0  0  0  0  0  0  0  0  0  0  0
   54.9783  152.2365   -8.3653 Cl  0  0  0  0  0  0  0  0  0  0  0  0
   55.4065  153.5008   -3.6996 H   0  0  0  0  0  0  0  0  0  0  0  0
   54.9495  156.7245   -6.5189 H   0  0  0  0  0  0  0  0  0  0  0  0
   55.2943  151.8707   -5.5398 H   0  0  0  0  0  0  0  0  0  0  0  0
   54.8358  155.0997   -8.3637 H   0  0  0  0  0  0  0  0  0  0  0  0
   61.6752  165.0334   -4.9607 H   0  0  0  0  0  0  0  0  0  0  0  0
   60.3893  163.1981   -3.3403 H   0  0  0  0  0  0  0  0  0  0  0  0
   61.2105  161.4871   -7.1094 H   0  0  0  0  0  0  0  0  0  0  0  0
   58.8845  158.3502   -5.6403 H   0  0  0  0  0  0  0  0  0  0  0  0
   57.2855  158.9229   -6.1309 H   0  0  0  0  0  0  0  0  0  0  0  0
   55.8906  160.1911   -4.5131 H   0  0  0  0  0  0  0  0  0  0  0  0
   56.5111  160.5064   -2.8879 H   0  0  0  0  0  0  0  0  0  0  0  0
   57.2284  156.5059   -5.6241 H   0  0  0  0  0  0  0  0  0  0  0  0
   57.8472  156.8239   -3.9987 H   0  0  0  0  0  0  0  0  0  0  0  0
   56.4525  158.0893   -2.3836 H   0  0  0  0  0  0  0  0  0  0  0  0
   54.8532  158.6626   -2.8734 H   0  0  0  0  0  0  0  0  0  0  0  0
   60.3796  160.5229   -3.6621 H   0  0  0  0  0  0  0  0  0  0  0  0
   60.3654  159.9342   -5.3260 H   0  0  0  0  0  0  0  0  0  0  0  0
   58.1405  161.5788   -3.9768 H   0  0  0  0  0  0  0  0  0  0  0  0
   58.0796  161.0091   -5.6560 H   0  0  0  0  0  0  0  0  0  0  0  0
   55.8875  155.8284   -3.0492 H   0  0  0  0  0  0  0  0  0  0  0  0
   53.2643  157.1477   -5.2024 H   0  0  0  0  0  0  0  0  0  0  0  0
   52.0487  157.2524   -3.9801 H   0  0  0  0  0  0  0  0  0  0  0  0
  1  3  1  0  0  0  0
  1  8  2  0  0  0  0
  2  4  2  0  0  0  0
  2  8  1  0  0  0  0
  3  9  2  0  0  0  0
  4  9  1  0  0  0  0
  5  6  2  0  0  0  0
  5 18  1  0  0  0  0
  6 19  1  0  0  0  0
  7 18  2  0  0  0  0
  7 19  1  0  0  0  0
  8 17  1  0  0  0  0
  9 24  1  0  0  0  0
 10 17  1  0  0  0  0
 10 22  1  0  0  0  0
 10 23  2  0  0  0  0
 11 13  1  0  0  0  0
 11 20  1  0  0  0  0
 12 14  1  0  0  0  0
 12 20  1  0  0  0  0
 13 21  1  0  0  0  0
 14 21  1  0  0  0  0
 15 16  1  0  0  0  0
 15 19  1  0  0  0  0
 16 20  1  0  0  0  0
 17 21  1  0  0  0  0
  1 25  1  0  0  0  0
  2 26  1  0  0  0  0
  3 27  1  0  0  0  0
  4 28  1  0  0  0  0
  5 29  1  0  0  0  0
  6 30  1  0  0  0  0
  7 31  1  0  0  0  0
 11 32  1  0  0  0  0
 11 33  1  0  0  0  0
 12 34  1  0  0  0  0
 12 35  1  0  0  0  0
 13 36  1  0  0  0  0
 13 37  1  0  0  0  0
 14 38  1  0  0  0  0
 14 39  1  0  0  0  0
 15 40  1  0  0  0  0
 15 41  1  0  0  0  0
 16 42  1  0  0  0  0
 16 43  1  0  0  0  0
 17 44  1  0  0  0  0
 22 45  1  0  0  0  0
 22 46  1  0  0  0  0
M  END
> <FRED Chemgauss4 score>
-8.577201

$$$$
L-Leucine	P10000026
  -OEChem-05122015073D

 22 21  0     1  0  0  0  0  0999 V2000
   53.8551  156.0771   -3.4732 C   0  0  0  0  0  0  0  0  0  0  0  0
   56.3273  155.3167   -5.0060 C   0  0  0  0  0  0  0  0  0  0  0  0
   55.3361  153.2203   -5.9469 C   0  0  0  0  0  0  0  0  0  0  0  0
   53.9958  155.3941   -5.9436 C   0  0  0  0  0  0  0  0  0  0  0  0
   53.3103  155.1740   -4.5890 C   0  0  2  0  0  0  0  0  0  0  0  0
   55.3894  154.7435   -6.0723 C   0  0  0  0  0  0  0  0  0  0  0  0
   51.8435  155.3935   -4.8066 N   0  3  0  0  0  0  0  0  0  0  0  0
   53.7901  157.3154   -3.7192 O   0  5  0  0  0  0  0  0  0  0  0  0
   54.2870  155.4835   -2.4456 O   0  0  0  0  0  0  0  0  0  0  0  0
   55.9595  155.1039   -3.9964 H   0  0  0  0  0  0  0  0  0  0  0  0
   56.4195  156.4028   -5.1121 H   0  0  0  0  0  0  0  0  0  0  0  0
   57.3306  154.8874   -5.0986 H   0  0  0  0  0  0  0  0  0  0  0  0
   54.9177  152.9141   -4.9834 H   0  0  0  0  0  0  0  0  0  0  0  0
   56.3337  152.7788   -6.0429 H   0  0  0  0  0  0  0  0  0  0  0  0
   54.6996  152.7887   -6.7270 H   0  0  0  0  0  0  0  0  0  0  0  0
   53.3530  155.0082   -6.7465 H   0  0  0  0  0  0  0  0  0  0  0  0
   54.0925  156.4734   -6.1258 H   0  0  0  0  0  0  0  0  0  0  0  0
   53.3931  154.1237   -4.2896 H   0  0  0  0  0  0  0  0  0  0  0  0
   55.8150  154.9914   -7.0522 H   0  0  0  0  0  0  0  0  0  0  0  0
   51.3303  155.2217   -3.9419 H   0  0  0  0  0  0  0  0  0  0  0  0
   51.4966  154.7587   -5.5262 H   0  0  0  0  0  0  0  0  0  0  0  0
   51.6724  156.3540   -5.1052 H   0  0  0  0  0  0  0  0  0  0  0  0
  1  5  1  0  0  0  0
  1  8  1  0  0  0  0
  1  9  2  0  0  0  0
  2  6  1  0  0  0  0
  3  6  1  0  0  0  0
  4  5  1  0  0  0  0
  4  6  1  0  0  0  0
  5  7  1  0  0  0  0
  2 10  1  0  0  0  0
  2 11  1  0  0  0  0
  2 12  1  0  0  0  0
  3 13  1  0  0  0  0
  3 14  1  0  0  0  0
  3 15  1  0  0  0  0
  4 16  1  0  0  0  0
  4 17  1  0  0  0  0
  5 18  1  0  0  0  0
  6 19  1  0  0  0  0
  7 20  1  0  0  0  0
  7 21  1  0  0  0  0
  7 22  1  0  0  0  0
M  CHG  2   7   1   8  -1
M  END
> <FRED Chemgauss4 score>
-8.557150

$$$$
C90654700	P141782913
  -OEChem-05122015073D

 44 47  0     1  0  0  0  0  0999 V2000
   60.0298  162.8365   -3.9434 C   0  0  0  0  0  0  0  0  0  0  0  0
   61.3136  163.3195   -4.1918 C   0  0  0  0  0  0  0  0  0  0  0  0
   61.3385  162.1561   -6.3073 C   0  0  0  0  0  0  0  0  0  0  0  0
   60.0510  161.6578   -6.0639 C   0  0  0  0  0  0  0  0  0  0  0  0
   59.3938  162.0204   -4.8830 C   0  0  0  0  0  0  0  0  0  0  0  0
   61.9665  162.9828   -5.3751 C   0  0  0  0  0  0  0  0  0  0  0  0
   54.7047  155.6450   -5.6735 C   0  0  0  0  0  0  0  0  0  0  0  0
   54.0517  157.2790   -4.4160 C   0  0  0  0  0  0  0  0  0  0  0  0
   58.4486  158.8777   -5.7356 C   0  0  0  0  0  0  0  0  0  0  0  0
   59.3978  160.7608   -7.0784 C   0  0  0  0  0  0  0  0  0  0  0  0
   55.9505  154.6968   -7.7062 C   0  0  0  0  0  0  0  0  0  0  0  0
   54.9642  153.6548   -7.2708 C   0  0  0  0  0  0  0  0  0  0  0  0
   57.3627  161.0827   -5.6450 C   0  0  0  0  0  0  0  0  0  0  0  0
   55.5559  154.5955   -6.2606 C   0  0  0  0  0  0  0  0  0  0  0  0
   58.1240  160.1243   -6.5459 C   0  0  2  0  0  0  0  0  0  0  0  0
   56.4487  156.4638   -4.0624 C   0  0  0  0  0  0  0  0  0  0  0  0
   57.5668  156.6489   -5.0745 C   0  0  0  0  0  0  0  0  0  0  0  0
   53.4808  155.8441   -6.0694 N   0  0  0  0  0  0  0  0  0  0  0  0
   53.0444  156.8718   -5.2902 N   0  0  0  0  0  0  0  0  0  0  0  0
   55.1502  156.4699   -4.6810 N   0  0  0  0  0  0  0  0  0  0  0  0
   57.4624  157.9105   -5.7719 N   0  0  0  0  0  0  0  0  0  0  0  0
   59.5126  158.8099   -5.1315 O   0  0  0  0  0  0  0  0  0  0  0  0
   58.1399  161.5813   -4.5513 O   0  0  0  0  0  0  0  0  0  0  0  0
   63.1989  163.4489   -5.6166 F   0  0  0  0  0  0  0  0  0  0  0  0
   53.8819  158.5003   -3.3031 S   0  0  0  0  0  0  0  0  0  0  0  0
   59.5270  163.1048   -3.0179 H   0  0  0  0  0  0  0  0  0  0  0  0
   61.8040  163.9589   -3.4638 H   0  0  0  0  0  0  0  0  0  0  0  0
   61.8621  161.8970   -7.2242 H   0  0  0  0  0  0  0  0  0  0  0  0
   59.1494  161.3765   -7.9524 H   0  0  0  0  0  0  0  0  0  0  0  0
   60.1078  159.9908   -7.4046 H   0  0  0  0  0  0  0  0  0  0  0  0
   56.9371  154.3628   -8.0036 H   0  0  0  0  0  0  0  0  0  0  0  0
   55.5754  155.5424   -8.2698 H   0  0  0  0  0  0  0  0  0  0  0  0
   53.9254  153.7989   -7.5415 H   0  0  0  0  0  0  0  0  0  0  0  0
   55.2888  152.6213   -7.2763 H   0  0  0  0  0  0  0  0  0  0  0  0
   56.9875  161.9393   -6.2195 H   0  0  0  0  0  0  0  0  0  0  0  0
   56.4897  160.5822   -5.2107 H   0  0  0  0  0  0  0  0  0  0  0  0
   56.2899  154.1856   -5.5791 H   0  0  0  0  0  0  0  0  0  0  0  0
   57.4943  159.7921   -7.3607 H   0  0  0  0  0  0  0  0  0  0  0  0
   56.4560  157.2582   -3.3094 H   0  0  0  0  0  0  0  0  0  0  0  0
   56.5575  155.5008   -3.5539 H   0  0  0  0  0  0  0  0  0  0  0  0
   58.5386  156.6393   -4.5714 H   0  0  0  0  0  0  0  0  0  0  0  0
   57.5582  155.8547   -5.8280 H   0  0  0  0  0  0  0  0  0  0  0  0
   52.1035  157.2320   -5.3857 H   0  0  0  0  0  0  0  0  0  0  0  0
   56.6241  158.0950   -6.3146 H   0  0  0  0  0  0  0  0  0  0  0  0
  1  2  1  0  0  0  0
  1  5  2  0  0  0  0
  2  6  2  0  0  0  0
  3  4  2  0  0  0  0
  3  6  1  0  0  0  0
  4  5  1  0  0  0  0
  4 10  1  0  0  0  0
  5 23  1  0  0  0  0
  6 24  1  0  0  0  0
  7 14  1  0  0  0  0
  7 18  2  0  0  0  0
  7 20  1  0  0  0  0
  8 19  1  0  0  0  0
  8 20  1  0  0  0  0
  8 25  2  0  0  0  0
  9 15  1  0  0  0  0
  9 21  1  0  0  0  0
  9 22  2  0  0  0  0
 10 15  1  0  0  0  0
 11 12  1  0  0  0  0
 11 14  1  0  0  0  0
 12 14  1  0  0  0  0
 13 15  1  0  0  0  0
 13 23  1  0  0  0  0
 16 17  1  0  0  0  0
 16 20  1  0  0  0  0
 17 21  1  0  0  0  0
 18 19  1  0  0  0  0
  1 26  1  0  0  0  0
  2 27  1  0  0  0  0
  3 28  1  0  0  0  0
 10 29  1  0  0  0  0
 10 30  1  0  0  0  0
 11 31  1  0  0  0  0
 11 32  1  0  0  0  0
 12 33  1  0  0  0  0
 12 34  1  0  0  0  0
 13 35  1  0  0  0  0
 13 36  1  0  0  0  0
 14 37  1  0  0  0  0
 15 38  1  0  0  0  0
 16 39  1  0  0  0  0
 16 40  1  0  0  0  0
 17 41  1  0  0  0  0
 17 42  1  0  0  0  0
 19 43  1  0  0  0  0
 21 44  1  0  0  0  0
M  END
> <FRED Chemgauss4 score>
-8.551011

$$$$
C83628635	P130811035
  -OEChem-05122015073D

 40 42  0     1  0  0  0  0  0999 V2000
   59.2124  156.4869   -8.4136 C   0  0  0  0  0  0  0  0  0  0  0  0
   59.2003  155.1362   -8.0727 C   0  0  0  0  0  0  0  0  0  0  0  0
   57.2597  155.4995   -6.6713 C   0  0  0  0  0  0  0  0  0  0  0  0
   58.2563  157.3506   -7.8712 C   0  0  0  0  0  0  0  0  0  0  0  0
   57.2683  156.8620   -6.9926 C   0  0  0  0  0  0  0  0  0  0  0  0
   58.2266  154.6442   -7.2049 C   0  0  0  0  0  0  0  0  0  0  0  0
   55.9726  156.9316   -4.1689 C   0  0  0  0  0  0  0  0  0  0  0  0
   55.2405  156.4764   -3.1433 C   0  0  0  0  0  0  0  0  0  0  0  0
   54.0168  157.3422   -5.4998 C   0  0  0  0  0  0  0  0  0  0  0  0
   55.3538  157.3842   -5.3991 C   0  0  0  0  0  0  0  0  0  0  0  0
   53.7545  156.4323   -3.2609 C   0  0  0  0  0  0  0  0  0  0  0  0
   58.1974  158.8044   -8.2545 C   0  0  0  0  0  0  0  0  0  0  0  0
   57.8060  159.7013   -7.0712 C   0  0  0  0  0  0  0  0  0  0  0  0
   56.2514  157.8763   -6.4951 C   0  0  1  0  0  0  0  0  0  0  0  0
   55.9047  152.8015   -7.8093 C   0  0  0  0  0  0  0  0  0  0  0  0
   58.2156  153.1950   -6.8458 C   0  0  0  0  0  0  0  0  0  0  0  0
   57.3613  152.3655   -7.8166 C   0  0  0  0  0  0  0  0  0  0  0  0
   53.2397  156.8816   -4.4657 N   0  0  0  0  0  0  0  0  0  0  0  0
   56.9227  159.1128   -6.0557 N   0  0  0  0  0  0  0  0  0  0  0  0
   53.0697  156.0185   -2.3290 O   0  0  0  0  0  0  0  0  0  0  0  0
   59.9626  156.8563   -9.1033 H   0  0  0  0  0  0  0  0  0  0  0  0
   59.9505  154.4712   -8.4928 H   0  0  0  0  0  0  0  0  0  0  0  0
   56.5010  155.1012   -6.0045 H   0  0  0  0  0  0  0  0  0  0  0  0
   57.0544  156.9667   -4.0904 H   0  0  0  0  0  0  0  0  0  0  0  0
   55.6950  156.1355   -2.2209 H   0  0  0  0  0  0  0  0  0  0  0  0
   53.4781  157.6615   -6.3836 H   0  0  0  0  0  0  0  0  0  0  0  0
   59.1680  159.1329   -8.6379 H   0  0  0  0  0  0  0  0  0  0  0  0
   57.4587  158.9185   -9.0548 H   0  0  0  0  0  0  0  0  0  0  0  0
   58.7322  160.1033   -6.5796 H   0  0  0  0  0  0  0  0  0  0  0  0
   57.3131  160.6212   -7.4777 H   0  0  0  0  0  0  0  0  0  0  0  0
   55.6296  158.1723   -7.3330 H   0  0  0  0  0  0  0  0  0  0  0  0
   55.4762  152.7209   -6.8052 H   0  0  0  0  0  0  0  0  0  0  0  0
   55.8041  153.8387   -8.1446 H   0  0  0  0  0  0  0  0  0  0  0  0
   55.3163  152.1688   -8.4812 H   0  0  0  0  0  0  0  0  0  0  0  0
   59.2424  152.7912   -6.8343 H   0  0  0  0  0  0  0  0  0  0  0  0
   57.8350  153.0530   -5.8198 H   0  0  0  0  0  0  0  0  0  0  0  0
   57.7587  152.4584   -8.8347 H   0  0  0  0  0  0  0  0  0  0  0  0
   57.4194  151.3033   -7.5496 H   0  0  0  0  0  0  0  0  0  0  0  0
   52.2331  156.8754   -4.6015 H   0  0  0  0  0  0  0  0  0  0  0  0
   57.4550  158.9363   -5.1922 H   0  0  0  0  0  0  0  0  0  0  0  0
  1  2  2  0  0  0  0
  1  4  1  0  0  0  0
  2  6  1  0  0  0  0
  3  5  1  0  0  0  0
  3  6  2  0  0  0  0
  4  5  2  0  0  0  0
  4 12  1  0  0  0  0
  5 14  1  0  0  0  0
  6 16  1  0  0  0  0
  7  8  2  0  0  0  0
  7 10  1  0  0  0  0
  8 11  1  0  0  0  0
  9 10  2  0  0  0  0
  9 18  1  0  0  0  0
 10 14  1  0  0  0  0
 11 18  1  0  0  0  0
 11 20  2  0  0  0  0
 12 13  1  0  0  0  0
 13 19  1  0  0  0  0
 14 19  1  0  0  0  0
 15 17  1  0  0  0  0
 16 17  1  0  0  0  0
  1 21  1  0  0  0  0
  2 22  1  0  0  0  0
  3 23  1  0  0  0  0
  7 24  1  0  0  0  0
  8 25  1  0  0  0  0
  9 26  1  0  0  0  0
 12 27  1  0  0  0  0
 12 28  1  0  0  0  0
 13 29  1  0  0  0  0
 13 30  1  0  0  0  0
 14 31  1  0  0  0  0
 15 32  1  0  0  0  0
 15 33  1  0  0  0  0
 15 34  1  0  0  0  0
 16 35  1  0  0  0  0
 16 36  1  0  0  0  0
 17 37  1  0  0  0  0
 17 38  1  0  0  0  0
 18 39  1  0  0  0  0
 19 40  1  0  0  0  0
M  END
> <FRED Chemgauss4 score>
-8.528749

$$$$
C94924566	P148790109
  -OEChem-05122015073D

 41 42  0     1  0  0  0  0  0999 V2000
   56.3466  155.2216   -4.7947 C   0  0  0  0  0  0  0  0  0  0  0  0
   56.5152  154.3186   -5.8443 C   0  0  0  0  0  0  0  0  0  0  0  0
   54.1662  154.5016   -6.3790 C   0  0  0  0  0  0  0  0  0  0  0  0
   55.0878  155.7645   -4.5371 C   0  0  0  0  0  0  0  0  0  0  0  0
   55.4250  153.9586   -6.6365 C   0  0  0  0  0  0  0  0  0  0  0  0
   53.9976  155.4046   -5.3293 C   0  0  0  0  0  0  0  0  0  0  0  0
   56.2625  161.3765   -3.0927 C   0  0  0  0  0  0  0  0  0  0  0  0
   56.5837  160.0593   -2.8402 C   0  0  0  0  0  0  0  0  0  0  0  0
   58.4320  161.5038   -3.3873 C   0  0  0  0  0  0  0  0  0  0  0  0
   54.9452  156.7051   -3.4329 C   0  0  0  0  0  0  0  0  0  0  0  0
   55.6058  152.9932   -7.7587 C   0  0  0  0  0  0  0  0  0  0  0  0
   54.9075  161.9637   -3.0529 C   0  0  0  0  0  0  0  0  0  0  0  0
   59.7754  162.0539   -3.6719 C   0  0  0  0  0  0  0  0  0  0  0  0
   56.0535  158.2907   -1.1130 C   0  0  0  0  0  0  0  0  0  0  0  0
   55.6937  158.8924   -2.4699 C   0  0  2  0  0  0  0  0  0  0  0  0
   57.3211  162.2065   -3.4062 N   0  0  0  0  0  0  0  0  0  0  0  0
   52.5313  157.2783   -4.8182 N   0  0  0  0  0  0  0  0  0  0  0  0
   52.7146  155.9430   -5.0851 N   0  0  0  0  0  0  0  0  0  0  0  0
   55.7075  157.8756   -3.4970 N   0  0  0  0  0  0  0  0  0  0  0  0
   54.1908  156.4462   -2.4806 O   0  0  0  0  0  0  0  0  0  0  0  0
   58.2769  159.8390   -3.0008 S   0  0  0  0  0  0  0  0  0  0  0  0
   57.2040  155.4942   -4.1844 H   0  0  0  0  0  0  0  0  0  0  0  0
   57.4995  153.9006   -6.0376 H   0  0  0  0  0  0  0  0  0  0  0  0
   53.3177  154.2192   -6.9983 H   0  0  0  0  0  0  0  0  0  0  0  0
   55.4462  151.9660   -7.4084 H   0  0  0  0  0  0  0  0  0  0  0  0
   54.9012  153.1955   -8.5759 H   0  0  0  0  0  0  0  0  0  0  0  0
   56.6150  153.0625   -8.1852 H   0  0  0  0  0  0  0  0  0  0  0  0
   54.6694  162.3426   -2.0460 H   0  0  0  0  0  0  0  0  0  0  0  0
   54.8000  162.8019   -3.7616 H   0  0  0  0  0  0  0  0  0  0  0  0
   54.1315  161.2295   -3.3280 H   0  0  0  0  0  0  0  0  0  0  0  0
   60.2549  162.4195   -2.7505 H   0  0  0  0  0  0  0  0  0  0  0  0
   60.4409  161.2997   -4.1227 H   0  0  0  0  0  0  0  0  0  0  0  0
   59.7328  162.8924   -4.3862 H   0  0  0  0  0  0  0  0  0  0  0  0
   57.0869  157.9272   -1.1041 H   0  0  0  0  0  0  0  0  0  0  0  0
   55.9509  159.0410   -0.3210 H   0  0  0  0  0  0  0  0  0  0  0  0
   55.3983  157.4528   -0.8494 H   0  0  0  0  0  0  0  0  0  0  0  0
   54.6535  159.2364   -2.4165 H   0  0  0  0  0  0  0  0  0  0  0  0
   51.8727  157.3608   -4.0451 H   0  0  0  0  0  0  0  0  0  0  0  0
   52.0768  157.7099   -5.6219 H   0  0  0  0  0  0  0  0  0  0  0  0
   51.9125  155.3769   -5.3177 H   0  0  0  0  0  0  0  0  0  0  0  0
   56.3548  158.0066   -4.2674 H   0  0  0  0  0  0  0  0  0  0  0  0
  1  2  2  0  0  0  0
  1  4  1  0  0  0  0
  2  5  1  0  0  0  0
  3  5  2  0  0  0  0
  3  6  1  0  0  0  0
  4  6  2  0  0  0  0
  4 10  1  0  0  0  0
  5 11  1  0  0  0  0
  6 18  1  0  0  0  0
  7  8  2  0  0  0  0
  7 12  1  0  0  0  0
  7 16  1  0  0  0  0
  8 15  1  0  0  0  0
  8 21  1  0  0  0  0
  9 13  1  0  0  0  0
  9 16  2  0  0  0  0
  9 21  1  0  0  0  0
 10 19  1  0  0  0  0
 10 20  2  0  0  0  0
 14 15  1  0  0  0  0
 15 19  1  0  0  0  0
 17 18  1  0  0  0  0
  1 22  1  0  0  0  0
  2 23  1  0  0  0  0
  3 24  1  0  0  0  0
 11 25  1  0  0  0  0
 11 26  1  0  0  0  0
 11 27  1  0  0  0  0
 12 28  1  0  0  0  0
 12 29  1  0  0  0  0
 12 30  1  0  0  0  0
 13 31  1  0  0  0  0
 13 32  1  0  0  0  0
 13 33  1  0  0  0  0
 14 34  1  0  0  0  0
 14 35  1  0  0  0  0
 14 36  1  0  0  0  0
 15 37  1  0  0  0  0
 17 38  1  0  0  0  0
 17 39  1  0  0  0  0
 18 40  1  0  0  0  0
 19 41  1  0  0  0  0
M  END
> <FRED Chemgauss4 score>
-8.508224

$$$$
C48877286	P73025058
  -OEChem-05122015073D

 37 38  0     1  0  0  0  0  0999 V2000
   59.0368  158.7468   -8.5680 C   0  0  0  0  0  0  0  0  0  0  0  0
   58.9110  157.5537   -7.8566 C   0  0  0  0  0  0  0  0  0  0  0  0
   59.4517  159.9076   -7.9153 C   0  0  0  0  0  0  0  0  0  0  0  0
   59.6148  158.6821   -5.8396 C   0  0  0  0  0  0  0  0  0  0  0  0
   55.6774  155.0059   -6.6734 C   0  0  0  0  0  0  0  0  0  0  0  0
   54.0375  155.7390   -5.0578 C   0  0  0  0  0  0  0  0  0  0  0  0
   56.3879  156.1266   -4.6544 C   0  0  0  0  0  0  0  0  0  0  0  0
   59.2000  157.5213   -6.4924 C   0  0  0  0  0  0  0  0  0  0  0  0
   54.3474  155.1210   -6.2693 C   0  0  0  0  0  0  0  0  0  0  0  0
   56.6977  155.5086   -5.8659 C   0  0  0  0  0  0  0  0  0  0  0  0
   55.0578  156.2418   -4.2503 C   0  0  0  0  0  0  0  0  0  0  0  0
   59.7407  159.8753   -6.5511 C   0  0  0  0  0  0  0  0  0  0  0  0
   58.4075  154.3948   -7.2788 C   0  0  0  0  0  0  0  0  0  0  0  0
   59.0640  156.2454   -5.7321 C   0  0  0  0  0  0  0  0  0  0  0  0
   53.3157  154.6127   -7.0857 N   0  0  0  0  0  0  0  0  0  0  0  0
   54.7073  155.6802   -1.6684 N   0  0  0  0  0  0  0  0  0  0  0  0
   58.0359  155.3927   -6.2724 N   0  0  3  0  0  0  0  0  0  0  0  0
   55.7564  157.9219   -2.3895 O   0  0  0  0  0  0  0  0  0  0  0  0
   53.3048  157.5172   -2.8065 O   0  0  0  0  0  0  0  0  0  0  0  0
   54.6699  157.0155   -2.7338 S   0  0  0  0  0  0  0  0  0  0  0  0
   60.2514  161.3081   -5.7460 Cl  0  0  0  0  0  0  0  0  0  0  0  0
   58.8116  158.7716   -9.6303 H   0  0  0  0  0  0  0  0  0  0  0  0
   58.5870  156.6540   -8.3733 H   0  0  0  0  0  0  0  0  0  0  0  0
   59.5451  160.8305   -8.4824 H   0  0  0  0  0  0  0  0  0  0  0  0
   59.8394  158.6516   -4.7759 H   0  0  0  0  0  0  0  0  0  0  0  0
   55.9191  154.5239   -7.6184 H   0  0  0  0  0  0  0  0  0  0  0  0
   53.0004  155.8289   -4.7428 H   0  0  0  0  0  0  0  0  0  0  0  0
   57.1834  156.5186   -4.0248 H   0  0  0  0  0  0  0  0  0  0  0  0
   59.4817  154.4416   -7.4756 H   0  0  0  0  0  0  0  0  0  0  0  0
   57.8701  154.5815   -8.2126 H   0  0  0  0  0  0  0  0  0  0  0  0
   58.1579  153.3907   -6.9256 H   0  0  0  0  0  0  0  0  0  0  0  0
   60.0041  155.6762   -5.7424 H   0  0  0  0  0  0  0  0  0  0  0  0
   58.8162  156.4292   -4.6776 H   0  0  0  0  0  0  0  0  0  0  0  0
   53.5473  154.2145   -7.9733 H   0  0  0  0  0  0  0  0  0  0  0  0
   52.3642  154.7435   -6.8072 H   0  0  0  0  0  0  0  0  0  0  0  0
   55.4892  155.6145   -1.0053 H   0  0  0  0  0  0  0  0  0  0  0  0
   53.8144  155.3383   -1.2926 H   0  0  0  0  0  0  0  0  0  0  0  0
  1  2  2  0  0  0  0
  1  3  1  0  0  0  0
  2  8  1  0  0  0  0
  3 12  2  0  0  0  0
  4  8  2  0  0  0  0
  4 12  1  0  0  0  0
  5  9  2  0  0  0  0
  5 10  1  0  0  0  0
  6  9  1  0  0  0  0
  6 11  2  0  0  0  0
  7 10  2  0  0  0  0
  7 11  1  0  0  0  0
  8 14  1  0  0  0  0
  9 15  1  0  0  0  0
 10 17  1  0  0  0  0
 11 20  1  0  0  0  0
 12 21  1  0  0  0  0
 13 17  1  0  0  0  0
 14 17  1  0  0  0  0
 16 20  1  0  0  0  0
 18 20  2  0  0  0  0
 19 20  2  0  0  0  0
  1 22  1  0  0  0  0
  2 23  1  0  0  0  0
  3 24  1  0  0  0  0
  4 25  1  0  0  0  0
  5 26  1  0  0  0  0
  6 27  1  0  0  0  0
  7 28  1  0  0  0  0
 13 29  1  0  0  0  0
 13 30  1  0  0  0  0
 13 31  1  0  0  0  0
 14 32  1  0  0  0  0
 14 33  1  0  0  0  0
 15 34  1  0  0  0  0
 15 35  1  0  0  0  0
 16 36  1  0  0  0  0
 16 37  1  0  0  0  0
M  END
> <FRED Chemgauss4 score>
-8.497362

$$$$
C93429035	P146298012
  -OEChem-05122015073D

 35 36  0     0  0  0  0  0  0999 V2000
   61.2691  161.8941   -6.7523 C   0  0  0  0  0  0  0  0  0  0  0  0
   60.6658  162.7344   -5.8166 C   0  0  0  0  0  0  0  0  0  0  0  0
   59.0668  161.0012   -5.2911 C   0  0  0  0  0  0  0  0  0  0  0  0
   60.7712  160.6074   -6.9575 C   0  0  0  0  0  0  0  0  0  0  0  0
   55.5008  157.7035   -4.0217 C   0  0  0  0  0  0  0  0  0  0  0  0
   59.6701  160.1609   -6.2269 C   0  0  0  0  0  0  0  0  0  0  0  0
   59.5647  162.2879   -5.0860 C   0  0  0  0  0  0  0  0  0  0  0  0
   55.0527  157.8538   -2.6957 C   0  0  0  0  0  0  0  0  0  0  0  0
   54.3497  157.6528   -4.7695 C   0  0  0  0  0  0  0  0  0  0  0  0
   57.9662  158.2030   -3.9654 C   0  0  0  0  0  0  0  0  0  0  0  0
   55.8676  157.9625   -1.4723 C   0  0  0  0  0  0  0  0  0  0  0  0
   54.1132  157.5061   -6.2162 C   0  0  0  0  0  0  0  0  0  0  0  0
   59.2064  157.8843   -4.7726 C   0  0  0  0  0  0  0  0  0  0  0  0
   53.7209  157.8959   -2.6031 N   0  0  0  0  0  0  0  0  0  0  0  0
   53.3222  157.7715   -3.8805 N   0  0  0  0  0  0  0  0  0  0  0  0
   61.4073  159.7854   -7.9158 N   0  0  0  0  0  0  0  0  0  0  0  0
   56.8274  157.6197   -4.5082 N   0  0  0  0  0  0  0  0  0  0  0  0
   58.0380  158.9165   -2.9680 O   0  0  0  0  0  0  0  0  0  0  0  0
   58.9899  158.5199   -6.4479 S   0  0  0  0  0  0  0  0  0  0  0  0
   58.8208  163.3250   -3.9313 Cl  0  0  0  0  0  0  0  0  0  0  0  0
   62.1262  162.2543   -7.3159 H   0  0  0  0  0  0  0  0  0  0  0  0
   61.0639  163.7346   -5.6669 H   0  0  0  0  0  0  0  0  0  0  0  0
   58.2076  160.6601   -4.7167 H   0  0  0  0  0  0  0  0  0  0  0  0
   56.1134  159.0142   -1.2483 H   0  0  0  0  0  0  0  0  0  0  0  0
   55.3510  157.5456   -0.5900 H   0  0  0  0  0  0  0  0  0  0  0  0
   56.8191  157.4082   -1.5560 H   0  0  0  0  0  0  0  0  0  0  0  0
   54.0241  156.4440   -6.5013 H   0  0  0  0  0  0  0  0  0  0  0  0
   53.1893  158.0166   -6.5412 H   0  0  0  0  0  0  0  0  0  0  0  0
   54.9287  157.9450   -6.8182 H   0  0  0  0  0  0  0  0  0  0  0  0
   60.0683  158.3668   -4.3016 H   0  0  0  0  0  0  0  0  0  0  0  0
   59.4010  156.8087   -4.8107 H   0  0  0  0  0  0  0  0  0  0  0  0
   52.3283  157.7759   -4.0737 H   0  0  0  0  0  0  0  0  0  0  0  0
   62.1616  160.1604   -8.4516 H   0  0  0  0  0  0  0  0  0  0  0  0
   61.0303  158.8804   -8.1042 H   0  0  0  0  0  0  0  0  0  0  0  0
   56.9631  157.0686   -5.3530 H   0  0  0  0  0  0  0  0  0  0  0  0
  1  2  2  0  0  0  0
  1  4  1  0  0  0  0
  2  7  1  0  0  0  0
  3  6  1  0  0  0  0
  3  7  2  0  0  0  0
  4  6  2  0  0  0  0
  4 16  1  0  0  0  0
  5  8  1  0  0  0  0
  5  9  2  0  0  0  0
  5 17  1  0  0  0  0
  6 19  1  0  0  0  0
  7 20  1  0  0  0  0
  8 11  1  0  0  0  0
  8 14  2  0  0  0  0
  9 12  1  0  0  0  0
  9 15  1  0  0  0  0
 10 13  1  0  0  0  0
 10 17  1  0  0  0  0
 10 18  2  0  0  0  0
 13 19  1  0  0  0  0
 14 15  1  0  0  0  0
  1 21  1  0  0  0  0
  2 22  1  0  0  0  0
  3 23  1  0  0  0  0
 11 24  1  0  0  0  0
 11 25  1  0  0  0  0
 11 26  1  0  0  0  0
 12 27  1  0  0  0  0
 12 28  1  0  0  0  0
 12 29  1  0  0  0  0
 13 30  1  0  0  0  0
 13 31  1  0  0  0  0
 15 32  1  0  0  0  0
 16 33  1  0  0  0  0
 16 34  1  0  0  0  0
 17 35  1  0  0  0  0
M  END
> <FRED Chemgauss4 score>
-8.485162

$$$$
C43258832	P65426456
  -OEChem-05122015073D

 42 43  0     1  0  0  0  0  0999 V2000
   57.6084  159.3871   -5.9375 C   0  0  0  0  0  0  0  0  0  0  0  0
   57.5782  160.5539   -5.1204 C   0  0  0  0  0  0  0  0  0  0  0  0
   57.6185  158.2310   -5.1885 C   0  0  0  0  0  0  0  0  0  0  0  0
   57.5661  160.2452   -3.7778 C   0  0  0  0  0  0  0  0  0  0  0  0
   53.6029  156.1361   -3.9018 C   0  0  0  0  0  0  0  0  0  0  0  0
   56.1700  154.0429   -5.8196 C   0  0  0  0  0  0  0  0  0  0  0  0
   54.9019  154.3566   -5.0323 C   0  0  0  0  0  0  0  0  0  0  0  0
   56.4209  155.0888   -6.9090 C   0  0  0  0  0  0  0  0  0  0  0  0
   55.2161  156.7825   -5.6598 C   0  0  0  0  0  0  0  0  0  0  0  0
   54.9243  155.7964   -4.5210 C   0  0  1  0  0  0  0  0  0  0  0  0
   59.9981  156.6381   -8.8454 C   0  0  0  0  0  0  0  0  0  0  0  0
   58.7775  156.9334   -7.9809 C   0  0  0  0  0  0  0  0  0  0  0  0
   57.6492  156.7870   -5.6735 C   0  0  2  0  0  0  0  0  0  0  0  0
   58.9123  156.4438   -6.5202 C   0  0  2  0  0  0  0  0  0  0  0  0
   56.4339  156.4740   -6.4213 N   0  0  1  0  0  0  0  0  0  0  0  0
   52.5408  156.0296   -4.7682 N   0  0  0  0  0  0  0  0  0  0  0  0
   60.0939  157.0464   -5.8874 N   0  0  0  0  0  0  0  0  0  0  0  0
   53.4994  156.4610   -2.7215 O   0  0  0  0  0  0  0  0  0  0  0  0
   57.5915  158.5545   -3.5072 S   0  0  0  0  0  0  0  0  0  0  0  0
   57.5263  161.5302   -2.3798 Br  0  0  0  0  0  0  0  0  0  0  0  0
   57.6220  159.3995   -7.0200 H   0  0  0  0  0  0  0  0  0  0  0  0
   57.5660  161.5650   -5.5081 H   0  0  0  0  0  0  0  0  0  0  0  0
   57.0271  154.0113   -5.1357 H   0  0  0  0  0  0  0  0  0  0  0  0
   56.0864  153.0495   -6.2736 H   0  0  0  0  0  0  0  0  0  0  0  0
   54.0244  154.1967   -5.6752 H   0  0  0  0  0  0  0  0  0  0  0  0
   54.7992  153.6553   -4.1936 H   0  0  0  0  0  0  0  0  0  0  0  0
   57.3958  154.8551   -7.3843 H   0  0  0  0  0  0  0  0  0  0  0  0
   55.6628  154.9670   -7.7127 H   0  0  0  0  0  0  0  0  0  0  0  0
   54.3387  156.8421   -6.3417 H   0  0  0  0  0  0  0  0  0  0  0  0
   55.3039  157.7991   -5.2213 H   0  0  0  0  0  0  0  0  0  0  0  0
   55.6884  155.8993   -3.7429 H   0  0  0  0  0  0  0  0  0  0  0  0
   60.8973  157.0995   -8.4255 H   0  0  0  0  0  0  0  0  0  0  0  0
   60.1657  155.5574   -8.8982 H   0  0  0  0  0  0  0  0  0  0  0  0
   59.8660  156.9994   -9.8694 H   0  0  0  0  0  0  0  0  0  0  0  0
   57.9174  156.4459   -8.4544 H   0  0  0  0  0  0  0  0  0  0  0  0
   58.5773  158.0121   -8.0017 H   0  0  0  0  0  0  0  0  0  0  0  0
   57.6492  156.1277   -4.7947 H   0  0  0  0  0  0  0  0  0  0  0  0
   59.0608  155.3566   -6.5333 H   0  0  0  0  0  0  0  0  0  0  0  0
   52.7194  155.7408   -5.7245 H   0  0  0  0  0  0  0  0  0  0  0  0
   51.5852  156.2281   -4.4898 H   0  0  0  0  0  0  0  0  0  0  0  0
   60.8909  157.2037   -6.4577 H   0  0  0  0  0  0  0  0  0  0  0  0
   60.1177  157.0792   -4.8955 H   0  0  0  0  0  0  0  0  0  0  0  0
  1  2  1  0  0  0  0
  1  3  2  0  0  0  0
  2  4  2  0  0  0  0
  3 13  1  0  0  0  0
  3 19  1  0  0  0  0
  4 19  1  0  0  0  0
  4 20  1  0  0  0  0
  5 10  1  0  0  0  0
  5 16  1  0  0  0  0
  5 18  2  0  0  0  0
  6  7  1  0  0  0  0
  6  8  1  0  0  0  0
  7 10  1  0  0  0  0
  8 15  1  0  0  0  0
  9 10  1  0  0  0  0
  9 15  1  0  0  0  0
 11 12  1  0  0  0  0
 12 14  1  0  0  0  0
 13 14  1  0  0  0  0
 13 15  1  0  0  0  0
 14 17  1  0  0  0  0
  1 21  1  0  0  0  0
  2 22  1  0  0  0  0
  6 23  1  0  0  0  0
  6 24  1  0  0  0  0
  7 25  1  0  0  0  0
  7 26  1  0  0  0  0
  8 27  1  0  0  0  0
  8 28  1  0  0  0  0
  9 29  1  0  0  0  0
  9 30  1  0  0  0  0
 10 31  1  0  0  0  0
 11 32  1  0  0  0  0
 11 33  1  0  0  0  0
 11 34  1  0  0  0  0
 12 35  1  0  0  0  0
 12 36  1  0  0  0  0
 13 37  1  0  0  0  0
 14 38  1  0  0  0  0
 16 39  1  0  0  0  0
 16 40  1  0  0  0  0
 17 41  1  0  0  0  0
 17 42  1  0  0  0  0
M  END
> <FRED Chemgauss4 score>
-8.482617

$$$$
C05783668	P151021902
  -OEChem-05122015073D

 15 15  0     1  0  0  0  0  0999 V2000
   54.1453  155.6639   -4.5762 C   0  0  0  0  0  0  0  0  0  0  0  0
   53.8983  156.3493   -3.2364 C   0  0  0  0  0  0  0  0  0  0  0  0
   54.3792  158.4348   -4.1821 C   0  0  0  0  0  0  0  0  0  0  0  0
   54.0346  156.5517   -5.7772 C   0  0  2  0  0  0  0  0  0  0  0  0
   53.9968  157.6356   -3.1281 N   0  0  0  0  0  0  0  0  0  0  0  0
   54.5137  157.8625   -5.4343 N   0  0  0  0  0  0  0  0  0  0  0  0
   52.6298  156.6225   -6.2413 N   0  3  0  0  0  0  0  0  0  0  0  0
   53.5878  155.4760   -2.4109 O   0  5  0  0  0  0  0  0  0  0  0  0
   54.2673  154.4494   -4.6709 O   0  0  0  0  0  0  0  0  0  0  0  0
   54.6306  159.6309   -4.0248 O   0  0  0  0  0  0  0  0  0  0  0  0
   54.6298  156.1426   -6.6066 H   0  0  0  0  0  0  0  0  0  0  0  0
   54.9841  158.4069   -6.1625 H   0  0  0  0  0  0  0  0  0  0  0  0
   52.1610  157.4604   -5.8771 H   0  0  0  0  0  0  0  0  0  0  0  0
   52.0949  155.8036   -5.9281 H   0  0  0  0  0  0  0  0  0  0  0  0
   52.5795  156.6561   -7.2664 H   0  0  0  0  0  0  0  0  0  0  0  0
  1  2  1  0  0  0  0
  1  4  1  0  0  0  0
  1  9  2  0  0  0  0
  2  5  2  0  0  0  0
  2  8  1  0  0  0  0
  3  5  1  0  0  0  0
  3  6  1  0  0  0  0
  3 10  2  0  0  0  0
  4  6  1  0  0  0  0
  4  7  1  0  0  0  0
  4 11  1  0  0  0  0
  6 12  1  0  0  0  0
  7 13  1  0  0  0  0
  7 14  1  0  0  0  0
  7 15  1  0  0  0  0
M  CHG  2   7   1   8  -1
M  END
> <FRED Chemgauss4 score>
-8.462439

$$$$
C69369003	P106728978
  -OEChem-05122015073D

 43 44  0     1  0  0  0  0  0999 V2000
   60.3041  162.3106   -4.0905 C   0  0  0  0  0  0  0  0  0  0  0  0
   59.4344  161.6991   -3.1678 C   0  0  0  0  0  0  0  0  0  0  0  0
   60.1642  161.5687   -5.2379 C   0  0  0  0  0  0  0  0  0  0  0  0
   53.8581  156.1063   -3.8197 C   0  0  0  0  0  0  0  0  0  0  0  0
   55.1821  155.3633   -3.8423 C   0  0  0  0  0  0  0  0  0  0  0  0
   56.2933  156.0551   -4.6448 C   0  0  0  0  0  0  0  0  0  0  0  0
   53.7864  155.7085   -6.2842 C   0  0  0  0  0  0  0  0  0  0  0  0
   55.0421  156.4596   -6.7359 C   0  0  0  0  0  0  0  0  0  0  0  0
   59.1826  162.0846   -1.7675 C   0  0  0  0  0  0  0  0  0  0  0  0
   60.8001  161.6921   -6.5640 C   0  0  0  0  0  0  0  0  0  0  0  0
   58.7649  159.5487   -5.8421 C   0  0  0  0  0  0  0  0  0  0  0  0
   57.0171  157.7307   -6.2166 C   0  0  0  0  0  0  0  0  0  0  0  0
   57.5315  158.8301   -5.2810 C   0  0  2  0  0  0  0  0  0  0  0  0
   58.7895  160.6497   -3.6844 N   0  0  0  0  0  0  0  0  0  0  0  0
   59.2543  160.5961   -4.9442 N   0  0  0  0  0  0  0  0  0  0  0  0
   53.2346  156.2300   -5.0474 N   0  0  0  0  0  0  0  0  0  0  0  0
   55.8621  157.0257   -5.6566 N   0  0  2  0  0  0  0  0  0  0  0  0
   61.0987  163.3825   -3.8995 N   0  0  0  0  0  0  0  0  0  0  0  0
   53.3822  156.5471   -2.7745 O   0  0  0  0  0  0  0  0  0  0  0  0
   56.4885  159.7941   -5.1183 O   0  0  0  0  0  0  0  0  0  0  0  0
   55.5011  155.1437   -2.8075 H   0  0  0  0  0  0  0  0  0  0  0  0
   54.9855  154.3767   -4.2999 H   0  0  0  0  0  0  0  0  0  0  0  0
   56.9186  156.5881   -3.8970 H   0  0  0  0  0  0  0  0  0  0  0  0
   56.9709  155.2943   -5.0941 H   0  0  0  0  0  0  0  0  0  0  0  0
   53.0096  155.7195   -7.0555 H   0  0  0  0  0  0  0  0  0  0  0  0
   54.0427  154.6620   -6.0892 H   0  0  0  0  0  0  0  0  0  0  0  0
   55.6524  155.8141   -7.3988 H   0  0  0  0  0  0  0  0  0  0  0  0
   54.6892  157.2933   -7.3722 H   0  0  0  0  0  0  0  0  0  0  0  0
   58.3532  162.8081   -1.6955 H   0  0  0  0  0  0  0  0  0  0  0  0
   58.9230  161.2159   -1.1373 H   0  0  0  0  0  0  0  0  0  0  0  0
   60.0691  162.5457   -1.2974 H   0  0  0  0  0  0  0  0  0  0  0  0
   61.7326  161.1063   -6.6137 H   0  0  0  0  0  0  0  0  0  0  0  0
   60.1394  161.3395   -7.3744 H   0  0  0  0  0  0  0  0  0  0  0  0
   61.0489  162.7393   -6.8079 H   0  0  0  0  0  0  0  0  0  0  0  0
   58.5399  160.0240   -6.8047 H   0  0  0  0  0  0  0  0  0  0  0  0
   59.6027  158.8600   -6.0002 H   0  0  0  0  0  0  0  0  0  0  0  0
   56.7402  158.1688   -7.1829 H   0  0  0  0  0  0  0  0  0  0  0  0
   57.8190  157.0133   -6.4272 H   0  0  0  0  0  0  0  0  0  0  0  0
   57.7471  158.4112   -4.2904 H   0  0  0  0  0  0  0  0  0  0  0  0
   52.3553  156.7053   -5.0832 H   0  0  0  0  0  0  0  0  0  0  0  0
   61.1063  163.9110   -3.0132 H   0  0  0  0  0  0  0  0  0  0  0  0
   61.6693  163.7866   -4.6584 H   0  0  0  0  0  0  0  0  0  0  0  0
   55.7263  159.3128   -4.7641 H   0  0  0  0  0  0  0  0  0  0  0  0
  1  2  1  0  0  0  0
  1  3  2  0  0  0  0
  1 18  1  0  0  0  0
  2  9  1  0  0  0  0
  2 14  2  0  0  0  0
  3 10  1  0  0  0  0
  3 15  1  0  0  0  0
  4  5  1  0  0  0  0
  4 16  1  0  0  0  0
  4 19  2  0  0  0  0
  5  6  1  0  0  0  0
  6 17  1  0  0  0  0
  7  8  1  0  0  0  0
  7 16  1  0  0  0  0
  8 17  1  0  0  0  0
 11 13  1  0  0  0  0
 11 15  1  0  0  0  0
 12 13  1  0  0  0  0
 12 17  1  0  0  0  0
 13 20  1  0  0  0  0
 14 15  1  0  0  0  0
  5 21  1  0  0  0  0
  5 22  1  0  0  0  0
  6 23  1  0  0  0  0
  6 24  1  0  0  0  0
  7 25  1  0  0  0  0
  7 26  1  0  0  0  0
  8 27  1  0  0  0  0
  8 28  1  0  0  0  0
  9 29  1  0  0  0  0
  9 30  1  0  0  0  0
  9 31  1  0  0  0  0
 10 32  1  0  0  0  0
 10 33  1  0  0  0  0
 10 34  1  0  0  0  0
 11 35  1  0  0  0  0
 11 36  1  0  0  0  0
 12 37  1  0  0  0  0
 12 38  1  0  0  0  0
 13 39  1  0  0  0  0
 16 40  1  0  0  0  0
 18 41  1  0  0  0  0
 18 42  1  0  0  0  0
 20 43  1  0  0  0  0
M  END
> <FRED Chemgauss4 score>
-8.455024

$$$$
C21813873	P32484664
  -OEChem-05122015073D

 33 35  0     1  0  0  0  0  0999 V2000
   57.1599  159.4095    0.0272 C   0  0  0  0  0  0  0  0  0  0  0  0
   56.8079  154.4392   -6.5623 C   0  0  0  0  0  0  0  0  0  0  0  0
   56.2574  156.7818   -6.7763 C   0  0  0  0  0  0  0  0  0  0  0  0
   58.1447  154.7283   -6.8359 C   0  0  0  0  0  0  0  0  0  0  0  0
   57.5942  157.0710   -7.0499 C   0  0  0  0  0  0  0  0  0  0  0  0
   56.0753  158.6369   -0.4795 C   0  0  0  0  0  0  0  0  0  0  0  0
   58.1513  159.5884   -0.9124 C   0  0  0  0  0  0  0  0  0  0  0  0
   55.8642  155.4660   -6.5325 C   0  0  0  0  0  0  0  0  0  0  0  0
   58.5379  156.0442   -7.0797 C   0  0  0  0  0  0  0  0  0  0  0  0
   56.2789  158.2548   -1.7874 C   0  0  0  0  0  0  0  0  0  0  0  0
   55.3302  157.4489   -2.5755 C   0  0  0  0  0  0  0  0  0  0  0  0
   54.2882  156.6921   -4.1944 C   0  0  0  0  0  0  0  0  0  0  0  0
   54.4350  155.1571   -6.2394 C   0  0  0  0  0  0  0  0  0  0  0  0
   53.6745  156.3114   -5.5310 C   0  0  1  0  0  0  0  0  0  0  0  0
   55.2212  157.5714   -3.9301 N   0  0  0  0  0  0  0  0  0  0  0  0
   54.5213  156.5501   -2.0065 N   0  0  0  0  0  0  0  0  0  0  0  0
   52.2555  155.9636   -5.3765 N   0  0  0  0  0  0  0  0  0  0  0  0
   53.8152  156.0372   -3.1018 O   0  0  0  0  0  0  0  0  0  0  0  0
   59.8427  156.3262   -7.3454 O   0  0  0  0  0  0  0  0  0  0  0  0
   57.7727  158.8267   -2.3986 S   0  0  0  0  0  0  0  0  0  0  0  0
   57.2099  159.8141    1.0298 H   0  0  0  0  0  0  0  0  0  0  0  0
   56.5104  153.4111   -6.3737 H   0  0  0  0  0  0  0  0  0  0  0  0
   55.5289  157.5883   -6.7553 H   0  0  0  0  0  0  0  0  0  0  0  0
   58.8753  153.9240   -6.8575 H   0  0  0  0  0  0  0  0  0  0  0  0
   57.8942  158.0979   -7.2386 H   0  0  0  0  0  0  0  0  0  0  0  0
   55.1932  158.3789    0.0938 H   0  0  0  0  0  0  0  0  0  0  0  0
   59.0794  160.1303   -0.7977 H   0  0  0  0  0  0  0  0  0  0  0  0
   54.3931  154.2560   -5.6005 H   0  0  0  0  0  0  0  0  0  0  0  0
   53.9028  154.8647   -7.1627 H   0  0  0  0  0  0  0  0  0  0  0  0
   53.7041  157.1909   -6.1869 H   0  0  0  0  0  0  0  0  0  0  0  0
   51.8371  155.4108   -6.0872 H   0  0  0  0  0  0  0  0  0  0  0  0
   51.7331  156.4559   -4.6905 H   0  0  0  0  0  0  0  0  0  0  0  0
   59.9577  157.2786   -7.4922 H   0  0  0  0  0  0  0  0  0  0  0  0
  1  6  1  0  0  0  0
  1  7  2  0  0  0  0
  2  4  2  0  0  0  0
  2  8  1  0  0  0  0
  3  5  1  0  0  0  0
  3  8  2  0  0  0  0
  4  9  1  0  0  0  0
  5  9  2  0  0  0  0
  6 10  2  0  0  0  0
  7 20  1  0  0  0  0
  8 13  1  0  0  0  0
  9 19  1  0  0  0  0
 10 11  1  0  0  0  0
 10 20  1  0  0  0  0
 11 15  1  0  0  0  0
 11 16  2  0  0  0  0
 12 14  1  0  0  0  0
 12 15  2  0  0  0  0
 12 18  1  0  0  0  0
 13 14  1  0  0  0  0
 14 17  1  0  0  0  0
 16 18  1  0  0  0  0
  1 21  1  0  0  0  0
  2 22  1  0  0  0  0
  3 23  1  0  0  0  0
  4 24  1  0  0  0  0
  5 25  1  0  0  0  0
  6 26  1  0  0  0  0
  7 27  1  0  0  0  0
 13 28  1  0  0  0  0
 13 29  1  0  0  0  0
 14 30  1  0  0  0  0
 17 31  1  0  0  0  0
 17 32  1  0  0  0  0
 19 33  1  0  0  0  0
M  END
> <FRED Chemgauss4 score>
-8.437289

$$$$
C87599797	P137038360
  -OEChem-05122015073D

 30 31  0     1  0  0  0  0  0999 V2000
   54.4816  155.9189   -3.2206 C   0  0  0  0  0  0  0  0  0  0  0  0
   54.3438  155.2441   -4.4417 C   0  0  0  0  0  0  0  0  0  0  0  0
   59.6169  157.4290   -5.4841 C   0  0  0  0  0  0  0  0  0  0  0  0
   58.1688  157.7835   -5.7118 C   0  0  0  0  0  0  0  0  0  0  0  0
   59.7701  156.1813   -6.3279 C   0  0  0  0  0  0  0  0  0  0  0  0
   57.5235  156.4089   -5.7509 C   0  0  1  0  0  0  0  0  0  0  0  0
   56.2330  156.3686   -6.5461 C   0  0  0  0  0  0  0  0  0  0  0  0
   55.6476  154.9535   -6.5910 C   0  0  0  0  0  0  0  0  0  0  0  0
   55.3561  154.3974   -5.1875 C   0  0  2  0  0  0  0  0  0  0  0  0
   53.3425  156.5491   -2.9202 N   0  0  0  0  0  0  0  0  0  0  0  0
   53.1153  155.4371   -4.9298 N   0  0  0  0  0  0  0  0  0  0  0  0
   52.5823  156.2180   -3.9764 N   0  0  0  0  0  0  0  0  0  0  0  0
   54.8798  153.0344   -5.2306 N   0  0  0  0  0  0  0  0  0  0  0  0
   58.4917  155.5287   -6.3464 O   0  0  0  0  0  0  0  0  0  0  0  0
   55.3264  155.9845   -2.5511 H   0  0  0  0  0  0  0  0  0  0  0  0
   60.3142  158.2226   -5.7647 H   0  0  0  0  0  0  0  0  0  0  0  0
   59.7792  157.1882   -4.4268 H   0  0  0  0  0  0  0  0  0  0  0  0
   57.7513  158.4273   -4.9328 H   0  0  0  0  0  0  0  0  0  0  0  0
   58.0631  158.2962   -6.6756 H   0  0  0  0  0  0  0  0  0  0  0  0
   60.0303  156.4320   -7.3617 H   0  0  0  0  0  0  0  0  0  0  0  0
   60.5273  155.4980   -5.9333 H   0  0  0  0  0  0  0  0  0  0  0  0
   57.3425  156.0468   -4.7312 H   0  0  0  0  0  0  0  0  0  0  0  0
   55.5150  157.0615   -6.0930 H   0  0  0  0  0  0  0  0  0  0  0  0
   56.4288  156.7226   -7.5650 H   0  0  0  0  0  0  0  0  0  0  0  0
   54.7179  154.9731   -7.1749 H   0  0  0  0  0  0  0  0  0  0  0  0
   56.3436  154.2956   -7.1275 H   0  0  0  0  0  0  0  0  0  0  0  0
   56.2955  154.3631   -4.6216 H   0  0  0  0  0  0  0  0  0  0  0  0
   51.6278  156.5506   -4.0526 H   0  0  0  0  0  0  0  0  0  0  0  0
   54.3595  152.6776   -4.4489 H   0  0  0  0  0  0  0  0  0  0  0  0
   55.2440  152.4155   -5.9331 H   0  0  0  0  0  0  0  0  0  0  0  0
  1  2  1  0  0  0  0
  1 10  2  0  0  0  0
  2  9  1  0  0  0  0
  2 11  2  0  0  0  0
  3  4  1  0  0  0  0
  3  5  1  0  0  0  0
  4  6  1  0  0  0  0
  5 14  1  0  0  0  0
  6  7  1  0  0  0  0
  6 14  1  0  0  0  0
  7  8  1  0  0  0  0
  8  9  1  0  0  0  0
  9 13  1  0  0  0  0
 10 12  1  0  0  0  0
 11 12  1  0  0  0  0
  1 15  1  0  0  0  0
  3 16  1  0  0  0  0
  3 17  1  0  0  0  0
  4 18  1  0  0  0  0
  4 19  1  0  0  0  0
  5 20  1  0  0  0  0
  5 21  1  0  0  0  0
  6 22  1  0  0  0  0
  7 23  1  0  0  0  0
  7 24  1  0  0  0  0
  8 25  1  0  0  0  0
  8 26  1  0  0  0  0
  9 27  1  0  0  0  0
 12 28  1  0  0  0  0
 13 29  1  0  0  0  0
 13 30  1  0  0  0  0
M  END
> <FRED Chemgauss4 score>
-8.419282

$$$$
C42040378	P88561192
  -OEChem-05122015073D

 24 25  0     1  0  0  0  0  0999 V2000
   59.2035  154.6240   -6.5048 C   0  0  0  0  0  0  0  0  0  0  0  0
   58.8978  152.6733   -7.4836 C   0  0  0  0  0  0  0  0  0  0  0  0
   57.8665  154.3315   -6.6367 C   0  0  0  0  0  0  0  0  0  0  0  0
   54.5042  155.0932   -5.0081 C   0  0  0  0  0  0  0  0  0  0  0  0
   53.7595  156.2248   -3.3122 C   0  0  0  0  0  0  0  0  0  0  0  0
   56.6820  155.1605   -6.2047 C   0  0  0  0  0  0  0  0  0  0  0  0
   55.4723  154.3060   -5.8303 C   0  0  2  0  0  0  0  0  0  0  0  0
   57.6829  153.1157   -7.2464 N   0  0  0  0  0  0  0  0  0  0  0  0
   53.2923  155.3891   -5.3750 N   0  0  0  0  0  0  0  0  0  0  0  0
   59.8516  153.5524   -7.0514 N   0  0  0  0  0  0  0  0  0  0  0  0
   54.8619  155.5534   -3.7920 N   0  0  0  0  0  0  0  0  0  0  0  0
   52.7962  156.1045   -4.3225 N   0  0  0  0  0  0  0  0  0  0  0  0
   54.7049  153.8935   -6.9739 N   0  0  0  0  0  0  0  0  0  0  0  0
   53.6407  156.8009   -2.2418 O   0  0  0  0  0  0  0  0  0  0  0  0
   59.7374  155.4654   -6.0870 H   0  0  0  0  0  0  0  0  0  0  0  0
   59.1530  151.7366   -7.9589 H   0  0  0  0  0  0  0  0  0  0  0  0
   56.9833  155.7793   -5.3486 H   0  0  0  0  0  0  0  0  0  0  0  0
   56.4214  155.8732   -6.9991 H   0  0  0  0  0  0  0  0  0  0  0  0
   55.7560  153.4072   -5.2737 H   0  0  0  0  0  0  0  0  0  0  0  0
   60.8531  153.4318   -7.1239 H   0  0  0  0  0  0  0  0  0  0  0  0
   55.7543  155.4309   -3.3287 H   0  0  0  0  0  0  0  0  0  0  0  0
   51.8630  156.4935   -4.2786 H   0  0  0  0  0  0  0  0  0  0  0  0
   53.7190  153.7141   -6.8659 H   0  0  0  0  0  0  0  0  0  0  0  0
   55.1864  153.5943   -7.8072 H   0  0  0  0  0  0  0  0  0  0  0  0
  1  3  2  0  0  0  0
  1 10  1  0  0  0  0
  2  8  2  0  0  0  0
  2 10  1  0  0  0  0
  3  6  1  0  0  0  0
  3  8  1  0  0  0  0
  4  7  1  0  0  0  0
  4  9  2  0  0  0  0
  4 11  1  0  0  0  0
  5 11  1  0  0  0  0
  5 12  1  0  0  0  0
  5 14  2  0  0  0  0
  6  7  1  0  0  0  0
  7 13  1  0  0  0  0
  9 12  1  0  0  0  0
  1 15  1  0  0  0  0
  2 16  1  0  0  0  0
  6 17  1  0  0  0  0
  6 18  1  0  0  0  0
  7 19  1  0  0  0  0
 10 20  1  0  0  0  0
 11 21  1  0  0  0  0
 12 22  1  0  0  0  0
 13 23  1  0  0  0  0
 13 24  1  0  0  0  0
M  END
> <FRED Chemgauss4 score>
-8.407927

$$$$
C80042850	P125038093
  -OEChem-05122015073D

 38 39  0     0  0  0  0  0  0999 V2000
   61.0140  161.1539   -6.0960 C   0  0  0  0  0  0  0  0  0  0  0  0
   61.6503  162.1695   -6.0163 C   0  0  0  0  0  0  0  0  0  0  0  0
   59.8961  159.2559   -5.0338 C   0  0  0  0  0  0  0  0  0  0  0  0
   59.8728  159.4604   -7.4410 C   0  0  0  0  0  0  0  0  0  0  0  0
   59.1545  158.0782   -5.1266 C   0  0  0  0  0  0  0  0  0  0  0  0
   59.1311  158.2827   -7.5338 C   0  0  0  0  0  0  0  0  0  0  0  0
   54.4314  155.3612   -3.2005 C   0  0  0  0  0  0  0  0  0  0  0  0
   60.2553  159.9471   -6.1910 C   0  0  0  0  0  0  0  0  0  0  0  0
   54.8026  155.5638   -4.5432 C   0  0  0  0  0  0  0  0  0  0  0  0
   58.7720  157.5916   -6.3766 C   0  0  0  0  0  0  0  0  0  0  0  0
   53.6702  156.0600   -5.1414 C   0  0  0  0  0  0  0  0  0  0  0  0
   56.1092  155.3131   -5.2043 C   0  0  0  0  0  0  0  0  0  0  0  0
   53.3812  156.4790   -6.5238 C   0  0  0  0  0  0  0  0  0  0  0  0
   62.4300  163.4125   -5.9180 C   0  0  0  0  0  0  0  0  0  0  0  0
   57.9804  156.3318   -6.4760 C   0  0  0  0  0  0  0  0  0  0  0  0
   61.5246  164.6273   -5.7682 C   0  0  0  0  0  0  0  0  0  0  0  0
   53.1623  155.7011   -2.9594 N   0  0  0  0  0  0  0  0  0  0  0  0
   52.7263  156.1223   -4.1588 N   0  0  0  0  0  0  0  0  0  0  0  0
   56.7227  156.4183   -5.7779 N   0  0  0  0  0  0  0  0  0  0  0  0
   56.5599  154.1709   -5.2288 O   0  0  0  0  0  0  0  0  0  0  0  0
   60.7671  164.5133   -4.5698 O   0  0  0  0  0  0  0  0  0  0  0  0
   60.1852  159.6236   -4.0521 H   0  0  0  0  0  0  0  0  0  0  0  0
   60.1462  159.9868   -8.3525 H   0  0  0  0  0  0  0  0  0  0  0  0
   58.8784  157.5469   -4.2197 H   0  0  0  0  0  0  0  0  0  0  0  0
   58.8390  157.9100   -8.5121 H   0  0  0  0  0  0  0  0  0  0  0  0
   55.0305  154.9800   -2.3856 H   0  0  0  0  0  0  0  0  0  0  0  0
   53.0035  155.6357   -7.1269 H   0  0  0  0  0  0  0  0  0  0  0  0
   52.6252  157.2831   -6.5662 H   0  0  0  0  0  0  0  0  0  0  0  0
   54.2760  156.8784   -7.0338 H   0  0  0  0  0  0  0  0  0  0  0  0
   63.1094  163.3443   -5.0606 H   0  0  0  0  0  0  0  0  0  0  0  0
   63.0403  163.5251   -6.8210 H   0  0  0  0  0  0  0  0  0  0  0  0
   57.7596  156.0841   -7.5238 H   0  0  0  0  0  0  0  0  0  0  0  0
   58.5290  155.4769   -6.0571 H   0  0  0  0  0  0  0  0  0  0  0  0
   62.1304  165.5364   -5.6975 H   0  0  0  0  0  0  0  0  0  0  0  0
   60.8353  164.7263   -6.6136 H   0  0  0  0  0  0  0  0  0  0  0  0
   51.7671  156.4372   -4.2352 H   0  0  0  0  0  0  0  0  0  0  0  0
   56.2554  157.3212   -5.7703 H   0  0  0  0  0  0  0  0  0  0  0  0
   60.2080  165.3049   -4.5167 H   0  0  0  0  0  0  0  0  0  0  0  0
  1  2  3  0  0  0  0
  1  8  1  0  0  0  0
  2 14  1  0  0  0  0
  3  5  2  0  0  0  0
  3  8  1  0  0  0  0
  4  6  1  0  0  0  0
  4  8  2  0  0  0  0
  5 10  1  0  0  0  0
  6 10  2  0  0  0  0
  7  9  1  0  0  0  0
  7 17  2  0  0  0  0
  9 11  2  0  0  0  0
  9 12  1  0  0  0  0
 10 15  1  0  0  0  0
 11 13  1  0  0  0  0
 11 18  1  0  0  0  0
 12 19  1  0  0  0  0
 12 20  2  0  0  0  0
 14 16  1  0  0  0  0
 15 19  1  0  0  0  0
 16 21  1  0  0  0  0
 17 18  1  0  0  0  0
  3 22  1  0  0  0  0
  4 23  1  0  0  0  0
  5 24  1  0  0  0  0
  6 25  1  0  0  0  0
  7 26  1  0  0  0  0
 13 27  1  0  0  0  0
 13 28  1  0  0  0  0
 13 29  1  0  0  0  0
 14 30  1  0  0  0  0
 14 31  1  0  0  0  0
 15 32  1  0  0  0  0
 15 33  1  0  0  0  0
 16 34  1  0  0  0  0
 16 35  1  0  0  0  0
 18 36  1  0  0  0  0
 19 37  1  0  0  0  0
 21 38  1  0  0  0  0
M  END
> <FRED Chemgauss4 score>
-8.405697

$$$$
C49185038	P73462564
  -OEChem-05122015073D

 33 35  0     1  0  0  0  0  0999 V2000
   58.7461  159.5209   -1.1186 C   0  0  0  0  0  0  0  0  0  0  0  0
   58.3588  159.3299   -2.4491 C   0  0  0  0  0  0  0  0  0  0  0  0
   57.8210  159.4384   -0.0754 C   0  0  0  0  0  0  0  0  0  0  0  0
   57.9168  155.3281   -6.3680 C   0  0  0  0  0  0  0  0  0  0  0  0
   57.1927  154.1565   -6.3426 C   0  0  0  0  0  0  0  0  0  0  0  0
   56.2043  155.8848   -4.8984 C   0  0  0  0  0  0  0  0  0  0  0  0
   57.3443  156.3293   -5.5313 C   0  0  0  0  0  0  0  0  0  0  0  0
   56.0649  158.9666   -1.6589 C   0  0  0  0  0  0  0  0  0  0  0  0
   57.0100  159.0549   -2.6770 C   0  0  0  0  0  0  0  0  0  0  0  0
   56.4716  159.1611   -0.3281 C   0  0  0  0  0  0  0  0  0  0  0  0
   54.9948  158.6039   -3.4708 C   0  0  0  0  0  0  0  0  0  0  0  0
   57.3762  160.1835   -5.5666 C   0  0  0  0  0  0  0  0  0  0  0  0
   57.9209  157.7151   -5.3606 C   0  0  0  0  0  0  0  0  0  0  0  0
   56.8435  158.8038   -5.1644 C   0  0  1  0  0  0  0  0  0  0  0  0
   54.8189  158.6857   -2.1710 N   0  0  0  0  0  0  0  0  0  0  0  0
   56.2977  158.8187   -3.8248 N   0  0  0  0  0  0  0  0  0  0  0  0
   54.0763  158.3433   -4.4311 N   0  0  0  0  0  0  0  0  0  0  0  0
   55.5968  159.0847    0.6827 F   0  0  0  0  0  0  0  0  0  0  0  0
   55.8286  154.2664   -5.3132 S   0  0  0  0  0  0  0  0  0  0  0  0
   59.7874  159.7379   -0.8927 H   0  0  0  0  0  0  0  0  0  0  0  0
   59.0778  159.3931   -3.2579 H   0  0  0  0  0  0  0  0  0  0  0  0
   58.1517  159.5910    0.9486 H   0  0  0  0  0  0  0  0  0  0  0  0
   58.8138  155.4566   -6.9605 H   0  0  0  0  0  0  0  0  0  0  0  0
   57.3990  153.2415   -6.8797 H   0  0  0  0  0  0  0  0  0  0  0  0
   55.5706  156.4299   -4.2126 H   0  0  0  0  0  0  0  0  0  0  0  0
   58.2227  160.4757   -4.9353 H   0  0  0  0  0  0  0  0  0  0  0  0
   57.7131  160.2038   -6.6084 H   0  0  0  0  0  0  0  0  0  0  0  0
   56.5956  160.9436   -5.4550 H   0  0  0  0  0  0  0  0  0  0  0  0
   58.6337  157.7184   -4.5262 H   0  0  0  0  0  0  0  0  0  0  0  0
   58.5172  157.9452   -6.2538 H   0  0  0  0  0  0  0  0  0  0  0  0
   56.0040  158.5853   -5.8381 H   0  0  0  0  0  0  0  0  0  0  0  0
   53.0968  158.1278   -4.2030 H   0  0  0  0  0  0  0  0  0  0  0  0
   54.3358  158.2562   -5.4226 H   0  0  0  0  0  0  0  0  0  0  0  0
  1  2  2  0  0  0  0
  1  3  1  0  0  0  0
  2  9  1  0  0  0  0
  3 10  2  0  0  0  0
  4  5  2  0  0  0  0
  4  7  1  0  0  0  0
  5 19  1  0  0  0  0
  6  7  2  0  0  0  0
  6 19  1  0  0  0  0
  7 13  1  0  0  0  0
  8  9  2  0  0  0  0
  8 10  1  0  0  0  0
  8 15  1  0  0  0  0
  9 16  1  0  0  0  0
 10 18  1  0  0  0  0
 11 15  2  0  0  0  0
 11 16  1  0  0  0  0
 11 17  1  0  0  0  0
 12 14  1  0  0  0  0
 13 14  1  0  0  0  0
 14 16  1  0  0  0  0
  1 20  1  0  0  0  0
  2 21  1  0  0  0  0
  3 22  1  0  0  0  0
  4 23  1  0  0  0  0
  5 24  1  0  0  0  0
  6 25  1  0  0  0  0
 12 26  1  0  0  0  0
 12 27  1  0  0  0  0
 12 28  1  0  0  0  0
 13 29  1  0  0  0  0
 13 30  1  0  0  0  0
 14 31  1  0  0  0  0
 17 32  1  0  0  0  0
 17 33  1  0  0  0  0
M  END
> <FRED Chemgauss4 score>
-8.374155

$$$$
C91499904	P143187935
  -OEChem-05122015073D

 36 38  0     1  0  0  0  0  0999 V2000
   60.1331  160.3928   -6.3217 C   0  0  0  0  0  0  0  0  0  0  0  0
   60.5915  161.7039   -6.4948 C   0  0  0  0  0  0  0  0  0  0  0  0
   60.0907  162.2415   -4.1787 C   0  0  0  0  0  0  0  0  0  0  0  0
   54.9822  156.8253   -3.7777 C   0  0  0  0  0  0  0  0  0  0  0  0
   53.8930  156.7258   -5.6853 C   0  0  0  0  0  0  0  0  0  0  0  0
   58.8026  158.9962   -3.2169 C   0  0  0  0  0  0  0  0  0  0  0  0
   59.6457  159.9961   -5.0606 C   0  0  0  0  0  0  0  0  0  0  0  0
   55.1511  156.5803   -5.1537 C   0  0  0  0  0  0  0  0  0  0  0  0
   59.6357  160.9277   -4.0203 C   0  0  0  0  0  0  0  0  0  0  0  0
   60.5698  162.6124   -5.4384 C   0  0  0  0  0  0  0  0  0  0  0  0
   59.1171  158.7822   -4.5391 C   0  0  0  0  0  0  0  0  0  0  0  0
   57.1661  158.0200   -7.4027 C   0  0  0  0  0  0  0  0  0  0  0  0
   56.4197  156.2361   -5.8791 C   0  0  0  0  0  0  0  0  0  0  0  0
   53.7167  157.1054   -3.4553 N   0  0  0  0  0  0  0  0  0  0  0  0
   59.1188  160.2933   -2.9133 N   0  0  0  0  0  0  0  0  0  0  0  0
   53.0789  157.0374   -4.6363 N   0  0  0  0  0  0  0  0  0  0  0  0
   61.0397  163.9295   -5.6416 N   0  0  0  0  0  0  0  0  0  0  0  0
   57.3001  157.4197   -6.0511 N   0  0  1  0  0  0  0  0  0  0  0  0
   59.8509  157.2516   -6.5109 O   0  0  0  0  0  0  0  0  0  0  0  0
   58.9232  156.1899   -4.4382 O   0  0  0  0  0  0  0  0  0  0  0  0
   58.9043  157.3160   -5.3857 S   0  0  0  0  0  0  0  0  0  0  0  0
   60.1571  159.6970   -7.1556 H   0  0  0  0  0  0  0  0  0  0  0  0
   60.9668  162.0046   -7.4705 H   0  0  0  0  0  0  0  0  0  0  0  0
   60.0704  162.9430   -3.3503 H   0  0  0  0  0  0  0  0  0  0  0  0
   55.7269  156.8117   -2.9942 H   0  0  0  0  0  0  0  0  0  0  0  0
   53.5103  156.6384   -6.6922 H   0  0  0  0  0  0  0  0  0  0  0  0
   58.3823  158.3441   -2.4639 H   0  0  0  0  0  0  0  0  0  0  0  0
   57.8258  158.8866   -7.4960 H   0  0  0  0  0  0  0  0  0  0  0  0
   56.1353  158.3425   -7.5725 H   0  0  0  0  0  0  0  0  0  0  0  0
   57.4353  157.2887   -8.1695 H   0  0  0  0  0  0  0  0  0  0  0  0
   56.9833  155.4733   -5.3308 H   0  0  0  0  0  0  0  0  0  0  0  0
   56.2060  155.8305   -6.8736 H   0  0  0  0  0  0  0  0  0  0  0  0
   58.9920  160.7234   -2.0076 H   0  0  0  0  0  0  0  0  0  0  0  0
   52.0827  157.2167   -4.6542 H   0  0  0  0  0  0  0  0  0  0  0  0
   61.4249  164.1756   -6.5294 H   0  0  0  0  0  0  0  0  0  0  0  0
   61.0646  164.5602   -4.8677 H   0  0  0  0  0  0  0  0  0  0  0  0
  1  2  1  0  0  0  0
  1  7  2  0  0  0  0
  2 10  2  0  0  0  0
  3  9  2  0  0  0  0
  3 10  1  0  0  0  0
  4  8  1  0  0  0  0
  4 14  2  0  0  0  0
  5  8  2  0  0  0  0
  5 16  1  0  0  0  0
  6 11  2  0  0  0  0
  6 15  1  0  0  0  0
  7  9  1  0  0  0  0
  7 11  1  0  0  0  0
  8 13  1  0  0  0  0
  9 15  1  0  0  0  0
 10 17  1  0  0  0  0
 11 21  1  0  0  0  0
 12 18  1  0  0  0  0
 13 18  1  0  0  0  0
 14 16  1  0  0  0  0
 18 21  1  0  0  0  0
 19 21  2  0  0  0  0
 20 21  2  0  0  0  0
  1 22  1  0  0  0  0
  2 23  1  0  0  0  0
  3 24  1  0  0  0  0
  4 25  1  0  0  0  0
  5 26  1  0  0  0  0
  6 27  1  0  0  0  0
 12 28  1  0  0  0  0
 12 29  1  0  0  0  0
 12 30  1  0  0  0  0
 13 31  1  0  0  0  0
 13 32  1  0  0  0  0
 15 33  1  0  0  0  0
 16 34  1  0  0  0  0
 17 35  1  0  0  0  0
 17 36  1  0  0  0  0
M  END
> <FRED Chemgauss4 score>
-8.366547

$$$$
C83281337	P130183447
  -OEChem-05122015073D

 30 31  0     1  0  0  0  0  0999 V2000
   57.4108  156.0278   -6.3469 C   0  0  0  0  0  0  0  0  0  0  0  0
   55.3414  156.6026   -5.9580 C   0  0  0  0  0  0  0  0  0  0  0  0
   58.5644  155.1554   -6.6847 C   0  0  0  0  0  0  0  0  0  0  0  0
   58.2410  153.6761   -6.4487 C   0  0  0  0  0  0  0  0  0  0  0  0
   56.8641  153.3148   -7.0150 C   0  0  0  0  0  0  0  0  0  0  0  0
   55.7649  154.1502   -6.3554 C   0  0  0  0  0  0  0  0  0  0  0  0
   53.4489  155.5963   -4.5634 C   0  0  0  0  0  0  0  0  0  0  0  0
   54.0331  156.0509   -3.2299 C   0  0  0  0  0  0  0  0  0  0  0  0
   53.8862  156.5017   -5.7481 C   0  0  1  0  0  0  0  0  0  0  0  0
   57.3884  157.3285   -6.1433 N   0  0  0  0  0  0  0  0  0  0  0  0
   56.0763  157.6915   -5.8958 N   0  0  0  0  0  0  0  0  0  0  0  0
   56.1373  155.5423   -6.2416 N   0  0  0  0  0  0  0  0  0  0  0  0
   53.2664  157.8106   -5.5494 N   0  0  0  0  0  0  0  0  0  0  0  0
   53.5985  155.1574   -2.2129 O   0  0  0  0  0  0  0  0  0  0  0  0
   58.8209  155.3091   -7.7398 H   0  0  0  0  0  0  0  0  0  0  0  0
   59.4399  155.4415   -6.0921 H   0  0  0  0  0  0  0  0  0  0  0  0
   59.0139  153.0518   -6.9110 H   0  0  0  0  0  0  0  0  0  0  0  0
   58.2559  153.4619   -5.3724 H   0  0  0  0  0  0  0  0  0  0  0  0
   56.8629  153.4937   -8.0978 H   0  0  0  0  0  0  0  0  0  0  0  0
   56.6593  152.2493   -6.8646 H   0  0  0  0  0  0  0  0  0  0  0  0
   54.8385  154.0844   -6.9352 H   0  0  0  0  0  0  0  0  0  0  0  0
   55.5719  153.7927   -5.3375 H   0  0  0  0  0  0  0  0  0  0  0  0
   52.3538  155.5740   -4.4741 H   0  0  0  0  0  0  0  0  0  0  0  0
   53.7341  154.5524   -4.7494 H   0  0  0  0  0  0  0  0  0  0  0  0
   55.1270  156.0407   -3.2482 H   0  0  0  0  0  0  0  0  0  0  0  0
   53.6886  157.0585   -2.9767 H   0  0  0  0  0  0  0  0  0  0  0  0
   53.3733  156.1059   -6.6512 H   0  0  0  0  0  0  0  0  0  0  0  0
   52.3986  157.8478   -5.0614 H   0  0  0  0  0  0  0  0  0  0  0  0
   53.6193  158.5796   -6.0754 H   0  0  0  0  0  0  0  0  0  0  0  0
   53.9854  155.4723   -1.3801 H   0  0  0  0  0  0  0  0  0  0  0  0
  1  3  1  0  0  0  0
  1 10  2  0  0  0  0
  1 12  1  0  0  0  0
  2  9  1  0  0  0  0
  2 11  2  0  0  0  0
  2 12  1  0  0  0  0
  3  4  1  0  0  0  0
  4  5  1  0  0  0  0
  5  6  1  0  0  0  0
  6 12  1  0  0  0  0
  7  8  1  0  0  0  0
  7  9  1  0  0  0  0
  8 14  1  0  0  0  0
  9 13  1  0  0  0  0
 10 11  1  0  0  0  0
  3 15  1  0  0  0  0
  3 16  1  0  0  0  0
  4 17  1  0  0  0  0
  4 18  1  0  0  0  0
  5 19  1  0  0  0  0
  5 20  1  0  0  0  0
  6 21  1  0  0  0  0
  6 22  1  0  0  0  0
  7 23  1  0  0  0  0
  7 24  1  0  0  0  0
  8 25  1  0  0  0  0
  8 26  1  0  0  0  0
  9 27  1  0  0  0  0
 13 28  1  0  0  0  0
 13 29  1  0  0  0  0
 14 30  1  0  0  0  0
M  END
> <FRED Chemgauss4 score>
-8.361572

$$$$
C71322065	P110268428
  -OEChem-05122015073D

 35 36  0     0  0  0  0  0  0999 V2000
   60.4123  161.5549   -4.1960 C   0  0  0  0  0  0  0  0  0  0  0  0
   60.8965  162.2798   -5.0222 C   0  0  0  0  0  0  0  0  0  0  0  0
   58.4619  160.3317   -3.1474 C   0  0  0  0  0  0  0  0  0  0  0  0
   60.5749  160.1110   -2.2045 C   0  0  0  0  0  0  0  0  0  0  0  0
   59.8385  160.6935   -3.2125 C   0  0  0  0  0  0  0  0  0  0  0  0
   58.1986  159.4861   -2.0922 C   0  0  0  0  0  0  0  0  0  0  0  0
   55.5947  155.1328   -5.7392 C   0  0  0  0  0  0  0  0  0  0  0  0
   55.9574  155.8050   -4.5148 C   0  0  0  0  0  0  0  0  0  0  0  0
   54.3057  155.0307   -6.0800 C   0  0  0  0  0  0  0  0  0  0  0  0
   55.0217  156.3312   -3.7089 C   0  0  0  0  0  0  0  0  0  0  0  0
   53.5762  156.2183   -4.0870 C   0  0  0  0  0  0  0  0  0  0  0  0
   55.4742  156.9971   -2.4851 C   0  0  0  0  0  0  0  0  0  0  0  0
   61.4889  163.1668   -6.0346 C   0  0  0  0  0  0  0  0  0  0  0  0
   56.8861  158.8829   -1.6828 C   0  0  0  0  0  0  0  0  0  0  0  0
   62.8952  163.5983   -5.6424 C   0  0  0  0  0  0  0  0  0  0  0  0
   53.3231  155.5566   -5.2796 N   0  0  0  0  0  0  0  0  0  0  0  0
   56.3141  158.0695   -2.7318 N   0  0  0  0  0  0  0  0  0  0  0  0
   52.6950  156.6874   -3.3707 O   0  0  0  0  0  0  0  0  0  0  0  0
   55.1115  156.6023   -1.3770 O   0  0  0  0  0  0  0  0  0  0  0  0
   62.8574  164.2632   -4.3856 O   0  0  0  0  0  0  0  0  0  0  0  0
   59.6075  159.1322   -1.1855 S   0  0  0  0  0  0  0  0  0  0  0  0
   57.6998  160.6726   -3.8379 H   0  0  0  0  0  0  0  0  0  0  0  0
   61.6348  160.2074   -2.0104 H   0  0  0  0  0  0  0  0  0  0  0  0
   56.3799  154.7216   -6.3623 H   0  0  0  0  0  0  0  0  0  0  0  0
   57.0165  155.8628   -4.2840 H   0  0  0  0  0  0  0  0  0  0  0  0
   53.9737  154.5382   -6.9849 H   0  0  0  0  0  0  0  0  0  0  0  0
   61.5124  162.6467   -6.9992 H   0  0  0  0  0  0  0  0  0  0  0  0
   60.8563  164.0543   -6.1479 H   0  0  0  0  0  0  0  0  0  0  0  0
   57.0111  158.2513   -0.7965 H   0  0  0  0  0  0  0  0  0  0  0  0
   56.1586  159.6607   -1.4280 H   0  0  0  0  0  0  0  0  0  0  0  0
   63.5387  162.7190   -5.5379 H   0  0  0  0  0  0  0  0  0  0  0  0
   63.3349  164.2724   -6.3853 H   0  0  0  0  0  0  0  0  0  0  0  0
   52.3606  155.4511   -5.5866 H   0  0  0  0  0  0  0  0  0  0  0  0
   56.5392  158.2956   -3.6963 H   0  0  0  0  0  0  0  0  0  0  0  0
   63.7703  164.5185   -4.1773 H   0  0  0  0  0  0  0  0  0  0  0  0
  1  2  3  0  0  0  0
  1  5  1  0  0  0  0
  2 13  1  0  0  0  0
  3  5  1  0  0  0  0
  3  6  2  0  0  0  0
  4  5  2  0  0  0  0
  4 21  1  0  0  0  0
  6 14  1  0  0  0  0
  6 21  1  0  0  0  0
  7  8  1  0  0  0  0
  7  9  2  0  0  0  0
  8 10  2  0  0  0  0
  9 16  1  0  0  0  0
 10 11  1  0  0  0  0
 10 12  1  0  0  0  0
 11 16  1  0  0  0  0
 11 18  2  0  0  0  0
 12 17  1  0  0  0  0
 12 19  2  0  0  0  0
 13 15  1  0  0  0  0
 14 17  1  0  0  0  0
 15 20  1  0  0  0  0
  3 22  1  0  0  0  0
  4 23  1  0  0  0  0
  7 24  1  0  0  0  0
  8 25  1  0  0  0  0
  9 26  1  0  0  0  0
 13 27  1  0  0  0  0
 13 28  1  0  0  0  0
 14 29  1  0  0  0  0
 14 30  1  0  0  0  0
 15 31  1  0  0  0  0
 15 32  1  0  0  0  0
 16 33  1  0  0  0  0
 17 34  1  0  0  0  0
 20 35  1  0  0  0  0
M  END
> <FRED Chemgauss4 score>
-8.356594

$$$$
C87759253	P137266296
  -OEChem-05122015073D

 31 32  0     1  0  0  0  0  0999 V2000
   59.1471  162.2154   -3.7633 C   0  0  0  0  0  0  0  0  0  0  0  0
   58.2060  161.8216   -2.8120 C   0  0  0  0  0  0  0  0  0  0  0  0
   59.0820  160.0073   -4.7417 C   0  0  0  0  0  0  0  0  0  0  0  0
   58.1410  159.6135   -3.7903 C   0  0  0  0  0  0  0  0  0  0  0  0
   59.5850  161.3082   -4.7282 C   0  0  0  0  0  0  0  0  0  0  0  0
   57.7030  160.5207   -2.8255 C   0  0  0  0  0  0  0  0  0  0  0  0
   54.2195  156.8340   -3.7408 C   0  0  0  0  0  0  0  0  0  0  0  0
   55.1243  156.6532   -6.5110 C   0  0  0  0  0  0  0  0  0  0  0  0
   56.0296  156.1243   -5.4081 C   0  0  0  0  0  0  0  0  0  0  0  0
   53.6837  156.3462   -6.1499 C   0  0  0  0  0  0  0  0  0  0  0  0
   55.7065  156.7768   -4.0650 C   0  0  1  0  0  0  0  0  0  0  0  0
   57.6240  158.2048   -3.8396 C   0  0  0  0  0  0  0  0  0  0  0  0
   53.3403  156.7460   -4.7986 N   0  0  0  0  0  0  0  0  0  0  0  0
   56.1816  158.1604   -4.0235 N   0  0  0  0  0  0  0  0  0  0  0  0
   53.8336  157.0290   -2.5856 O   0  0  0  0  0  0  0  0  0  0  0  0
   60.7471  161.7942   -5.9009 Cl  0  0  0  0  0  0  0  0  0  0  0  0
   56.5395  160.0694   -1.6331 Cl  0  0  0  0  0  0  0  0  0  0  0  0
   59.5298  163.2324   -3.7408 H   0  0  0  0  0  0  0  0  0  0  0  0
   57.8751  162.5407   -2.0669 H   0  0  0  0  0  0  0  0  0  0  0  0
   59.4216  159.2976   -5.4931 H   0  0  0  0  0  0  0  0  0  0  0  0
   55.2597  157.7325   -6.6331 H   0  0  0  0  0  0  0  0  0  0  0  0
   55.3845  156.1796   -7.4647 H   0  0  0  0  0  0  0  0  0  0  0  0
   55.9172  155.0284   -5.3330 H   0  0  0  0  0  0  0  0  0  0  0  0
   57.0842  156.3050   -5.6867 H   0  0  0  0  0  0  0  0  0  0  0  0
   52.9999  156.8796   -6.8185 H   0  0  0  0  0  0  0  0  0  0  0  0
   53.4783  155.2758   -6.2442 H   0  0  0  0  0  0  0  0  0  0  0  0
   56.1781  156.2201   -3.2552 H   0  0  0  0  0  0  0  0  0  0  0  0
   58.0864  157.6524   -4.6648 H   0  0  0  0  0  0  0  0  0  0  0  0
   57.8603  157.6669   -2.9154 H   0  0  0  0  0  0  0  0  0  0  0  0
   52.3696  156.9810   -4.6169 H   0  0  0  0  0  0  0  0  0  0  0  0
   55.9371  158.6198   -4.8983 H   0  0  0  0  0  0  0  0  0  0  0  0
  1  2  1  0  0  0  0
  1  5  2  0  0  0  0
  2  6  2  0  0  0  0
  3  4  2  0  0  0  0
  3  5  1  0  0  0  0
  4  6  1  0  0  0  0
  4 12  1  0  0  0  0
  5 16  1  0  0  0  0
  6 17  1  0  0  0  0
  7 11  1  0  0  0  0
  7 13  1  0  0  0  0
  7 15  2  0  0  0  0
  8  9  1  0  0  0  0
  8 10  1  0  0  0  0
  9 11  1  0  0  0  0
 10 13  1  0  0  0  0
 11 14  1  0  0  0  0
 12 14  1  0  0  0  0
  1 18  1  0  0  0  0
  2 19  1  0  0  0  0
  3 20  1  0  0  0  0
  8 21  1  0  0  0  0
  8 22  1  0  0  0  0
  9 23  1  0  0  0  0
  9 24  1  0  0  0  0
 10 25  1  0  0  0  0
 10 26  1  0  0  0  0
 11 27  1  0  0  0  0
 12 28  1  0  0  0  0
 12 29  1  0  0  0  0
 13 30  1  0  0  0  0
 14 31  1  0  0  0  0
M  END
> <FRED Chemgauss4 score>
-8.323050

$$$$
L-Cysteine	P10000030
  -OEChem-05122015073D

 14 13  0     1  0  0  0  0  0999 V2000
   53.7019  155.9590   -3.2302 C   0  0  0  0  0  0  0  0  0  0  0  0
   55.3803  155.8625   -5.2236 C   0  0  0  0  0  0  0  0  0  0  0  0
   54.0370  155.4242   -4.6342 C   0  0  2  0  0  0  0  0  0  0  0  0
   52.9911  155.7009   -5.6710 N   0  3  0  0  0  0  0  0  0  0  0  0
   53.6656  157.2187   -3.1289 O   0  5  0  0  0  0  0  0  0  0  0  0
   53.5273  155.0838   -2.3363 O   0  0  0  0  0  0  0  0  0  0  0  0
   55.9837  154.7700   -6.5523 S   0  0  0  0  0  0  0  0  0  0  0  0
   55.2999  156.8744   -5.6361 H   0  0  0  0  0  0  0  0  0  0  0  0
   56.1492  155.8949   -4.4445 H   0  0  0  0  0  0  0  0  0  0  0  0
   54.0495  154.3313   -4.5351 H   0  0  0  0  0  0  0  0  0  0  0  0
   52.0726  155.4177   -5.3287 H   0  0  0  0  0  0  0  0  0  0  0  0
   53.1972  155.1820   -6.5252 H   0  0  0  0  0  0  0  0  0  0  0  0
   52.9672  156.6973   -5.8897 H   0  0  0  0  0  0  0  0  0  0  0  0
   54.9336  154.9520   -7.3631 H   0  0  0  0  0  0  0  0  0  0  0  0
  1  3  1  0  0  0  0
  1  5  1  0  0  0  0
  1  6  2  0  0  0  0
  2  3  1  0  0  0  0
  2  7  1  0  0  0  0
  3  4  1  0  0  0  0
  2  8  1  0  0  0  0
  2  9  1  0  0  0  0
  3 10  1  0  0  0  0
  4 11  1  0  0  0  0
  4 12  1  0  0  0  0
  4 13  1  0  0  0  0
  7 14  1  0  0  0  0
M  CHG  2   4   1   5  -1
M  END
> <FRED Chemgauss4 score>
-8.300735

$$$$
C43287250	P65476418
  -OEChem-05122015073D

 42 43  0     1  0  0  0  0  0999 V2000
   58.9795  162.1544   -4.0683 C   0  0  0  0  0  0  0  0  0  0  0  0
   61.1199  162.0625   -3.1671 C   0  0  0  0  0  0  0  0  0  0  0  0
   60.3755  162.3258   -4.2958 C   0  0  0  0  0  0  0  0  0  0  0  0
   58.7100  161.7664   -2.7741 C   0  0  0  0  0  0  0  0  0  0  0  0
   53.4578  156.4433   -3.4656 C   0  0  0  0  0  0  0  0  0  0  0  0
   54.7294  158.8809   -2.8840 C   0  0  0  0  0  0  0  0  0  0  0  0
   56.9921  157.9656   -3.4548 C   0  0  0  0  0  0  0  0  0  0  0  0
   55.4251  160.0454   -2.1760 C   0  0  0  0  0  0  0  0  0  0  0  0
   57.6128  159.1601   -2.7275 C   0  0  0  0  0  0  0  0  0  0  0  0
   55.6090  157.6261   -2.8891 C   0  0  0  0  0  0  0  0  0  0  0  0
   55.7694  162.9763   -3.4960 C   0  0  0  0  0  0  0  0  0  0  0  0
   54.9530  156.4995   -3.6826 C   0  0  0  0  0  0  0  0  0  0  0  0
   57.3592  161.4802   -2.1320 C   0  0  1  0  0  0  0  0  0  0  0  0
   56.4324  162.7267   -2.1402 C   0  0  1  0  0  0  0  0  0  0  0  0
   56.7302  160.3329   -2.7860 N   0  0  0  0  0  0  0  0  0  0  0  0
   52.7579  156.6349   -4.6376 N   0  0  0  0  0  0  0  0  0  0  0  0
   57.1765  163.9142   -1.7667 N   0  0  0  0  0  0  0  0  0  0  0  0
   52.9251  156.2506   -2.3766 O   0  0  0  0  0  0  0  0  0  0  0  0
   60.1367  161.6106   -1.8399 S   0  0  0  0  0  0  0  0  0  0  0  0
   61.0731  162.8535   -5.9624 Br  0  0  0  0  0  0  0  0  0  0  0  0
   58.2072  162.3067   -4.8126 H   0  0  0  0  0  0  0  0  0  0  0  0
   62.1939  162.1122   -3.0512 H   0  0  0  0  0  0  0  0  0  0  0  0
   53.7774  158.6680   -2.3832 H   0  0  0  0  0  0  0  0  0  0  0  0
   54.4877  159.1742   -3.9142 H   0  0  0  0  0  0  0  0  0  0  0  0
   56.9141  158.1929   -4.5263 H   0  0  0  0  0  0  0  0  0  0  0  0
   57.6569  157.0985   -3.3621 H   0  0  0  0  0  0  0  0  0  0  0  0
   54.7770  160.9270   -2.2535 H   0  0  0  0  0  0  0  0  0  0  0  0
   55.5343  159.8146   -1.1081 H   0  0  0  0  0  0  0  0  0  0  0  0
   57.8303  158.8852   -1.6869 H   0  0  0  0  0  0  0  0  0  0  0  0
   58.5703  159.3920   -3.2095 H   0  0  0  0  0  0  0  0  0  0  0  0
   55.7323  157.2845   -1.8526 H   0  0  0  0  0  0  0  0  0  0  0  0
   56.5184  163.0915   -4.2873 H   0  0  0  0  0  0  0  0  0  0  0  0
   55.1409  163.8717   -3.4808 H   0  0  0  0  0  0  0  0  0  0  0  0
   55.1273  162.1325   -3.7738 H   0  0  0  0  0  0  0  0  0  0  0  0
   55.3905  155.5445   -3.3801 H   0  0  0  0  0  0  0  0  0  0  0  0
   55.1502  156.6477   -4.7475 H   0  0  0  0  0  0  0  0  0  0  0  0
   57.5296  161.1960   -1.0846 H   0  0  0  0  0  0  0  0  0  0  0  0
   55.6420  162.6193   -1.3877 H   0  0  0  0  0  0  0  0  0  0  0  0
   53.2647  156.7895   -5.5033 H   0  0  0  0  0  0  0  0  0  0  0  0
   51.7434  156.6235   -4.6472 H   0  0  0  0  0  0  0  0  0  0  0  0
   57.8936  163.8316   -1.0721 H   0  0  0  0  0  0  0  0  0  0  0  0
   56.8270  164.8083   -2.0531 H   0  0  0  0  0  0  0  0  0  0  0  0
  1  3  1  0  0  0  0
  1  4  2  0  0  0  0
  2  3  2  0  0  0  0
  2 19  1  0  0  0  0
  3 20  1  0  0  0  0
  4 13  1  0  0  0  0
  4 19  1  0  0  0  0
  5 12  1  0  0  0  0
  5 16  1  0  0  0  0
  5 18  2  0  0  0  0
  6  8  1  0  0  0  0
  6 10  1  0  0  0  0
  7  9  1  0  0  0  0
  7 10  1  0  0  0  0
  8 15  1  0  0  0  0
  9 15  1  0  0  0  0
 10 12  1  0  0  0  0
 11 14  1  0  0  0  0
 13 14  1  0  0  0  0
 13 15  1  0  0  0  0
 14 17  1  0  0  0  0
  1 21  1  0  0  0  0
  2 22  1  0  0  0  0
  6 23  1  0  0  0  0
  6 24  1  0  0  0  0
  7 25  1  0  0  0  0
  7 26  1  0  0  0  0
  8 27  1  0  0  0  0
  8 28  1  0  0  0  0
  9 29  1  0  0  0  0
  9 30  1  0  0  0  0
 10 31  1  0  0  0  0
 11 32  1  0  0  0  0
 11 33  1  0  0  0  0
 11 34  1  0  0  0  0
 12 35  1  0  0  0  0
 12 36  1  0  0  0  0
 13 37  1  0  0  0  0
 14 38  1  0  0  0  0
 16 39  1  0  0  0  0
 16 40  1  0  0  0  0
 17 41  1  0  0  0  0
 17 42  1  0  0  0  0
M  END
> <FRED Chemgauss4 score>
-8.299561

$$$$
C61656861	P94432918
  -OEChem-05122015073D

 38 40  0     1  0  0  0  0  0999 V2000
   56.3170  158.8645   -2.8907 C   0  0  0  0  0  0  0  0  0  0  0  0
   56.3678  157.8713   -3.8624 C   0  0  0  0  0  0  0  0  0  0  0  0
   59.3594  153.4876   -7.1608 C   0  0  0  0  0  0  0  0  0  0  0  0
   55.3194  158.7838   -1.9324 C   0  0  0  0  0  0  0  0  0  0  0  0
   60.4507  153.9272   -7.8794 C   0  0  0  0  0  0  0  0  0  0  0  0
   58.4397  154.5437   -6.8741 C   0  0  0  0  0  0  0  0  0  0  0  0
   55.4328  156.8423   -3.8464 C   0  0  0  0  0  0  0  0  0  0  0  0
   58.8896  155.7444   -7.3858 C   0  0  0  0  0  0  0  0  0  0  0  0
   54.4749  156.8521   -2.8453 C   0  0  0  0  0  0  0  0  0  0  0  0
   58.1825  157.0466   -7.2077 C   0  0  0  0  0  0  0  0  0  0  0  0
   56.7618  156.8148   -6.6600 C   0  0  0  0  0  0  0  0  0  0  0  0
   57.1301  154.4257   -6.1282 C   0  0  2  0  0  0  0  0  0  0  0  0
   56.0723  153.7323   -7.0010 C   0  0  0  0  0  0  0  0  0  0  0  0
   55.4826  155.7668   -4.8928 C   0  0  0  0  0  0  0  0  0  0  0  0
   53.4450  155.7722   -2.7797 C   0  0  0  0  0  0  0  0  0  0  0  0
   54.3938  157.7997   -1.8845 N   0  0  0  0  0  0  0  0  0  0  0  0
   56.7492  155.7694   -5.6192 N   0  0  2  0  0  0  0  0  0  0  0  0
   52.4221  155.9326   -3.7806 N   0  0  0  0  0  0  0  0  0  0  0  0
   60.3738  155.6075   -8.2019 S   0  0  0  0  0  0  0  0  0  0  0  0
   57.0353  159.6762   -2.8818 H   0  0  0  0  0  0  0  0  0  0  0  0
   57.1394  157.9074   -4.6266 H   0  0  0  0  0  0  0  0  0  0  0  0
   59.2336  152.4567   -6.8613 H   0  0  0  0  0  0  0  0  0  0  0  0
   55.2363  159.5339   -1.1528 H   0  0  0  0  0  0  0  0  0  0  0  0
   61.2920  153.3422   -8.2244 H   0  0  0  0  0  0  0  0  0  0  0  0
   58.7331  157.7057   -6.5190 H   0  0  0  0  0  0  0  0  0  0  0  0
   58.1270  157.5638   -8.1790 H   0  0  0  0  0  0  0  0  0  0  0  0
   56.3519  157.7559   -6.2642 H   0  0  0  0  0  0  0  0  0  0  0  0
   56.1290  156.5213   -7.5088 H   0  0  0  0  0  0  0  0  0  0  0  0
   57.3571  153.7609   -5.2517 H   0  0  0  0  0  0  0  0  0  0  0  0
   55.8412  154.3626   -7.8540 H   0  0  0  0  0  0  0  0  0  0  0  0
   55.1737  153.5691   -6.4145 H   0  0  0  0  0  0  0  0  0  0  0  0
   56.4604  152.7793   -7.3465 H   0  0  0  0  0  0  0  0  0  0  0  0
   55.3573  154.7786   -4.4370 H   0  0  0  0  0  0  0  0  0  0  0  0
   54.6771  155.8923   -5.6240 H   0  0  0  0  0  0  0  0  0  0  0  0
   53.9008  154.7839   -2.9267 H   0  0  0  0  0  0  0  0  0  0  0  0
   52.9477  155.7517   -1.8012 H   0  0  0  0  0  0  0  0  0  0  0  0
   51.5092  155.5422   -3.6142 H   0  0  0  0  0  0  0  0  0  0  0  0
   52.6831  156.2453   -4.7012 H   0  0  0  0  0  0  0  0  0  0  0  0
  1  2  2  0  0  0  0
  1  4  1  0  0  0  0
  2  7  1  0  0  0  0
  3  5  2  0  0  0  0
  3  6  1  0  0  0  0
  4 16  2  0  0  0  0
  5 19  1  0  0  0  0
  6  8  2  0  0  0  0
  6 12  1  0  0  0  0
  7  9  2  0  0  0  0
  7 14  1  0  0  0  0
  8 10  1  0  0  0  0
  8 19  1  0  0  0  0
  9 15  1  0  0  0  0
  9 16  1  0  0  0  0
 10 11  1  0  0  0  0
 11 17  1  0  0  0  0
 12 13  1  0  0  0  0
 12 17  1  0  0  0  0
 14 17  1  0  0  0  0
 15 18  1  0  0  0  0
  1 20  1  0  0  0  0
  2 21  1  0  0  0  0
  3 22  1  0  0  0  0
  4 23  1  0  0  0  0
  5 24  1  0  0  0  0
 10 25  1  0  0  0  0
 10 26  1  0  0  0  0
 11 27  1  0  0  0  0
 11 28  1  0  0  0  0
 12 29  1  0  0  0  0
 13 30  1  0  0  0  0
 13 31  1  0  0  0  0
 13 32  1  0  0  0  0
 14 33  1  0  0  0  0
 14 34  1  0  0  0  0
 15 35  1  0  0  0  0
 15 36  1  0  0  0  0
 18 37  1  0  0  0  0
 18 38  1  0  0  0  0
M  END
> <FRED Chemgauss4 score>
-8.299318

$$$$
C79002672	P123316451
  -OEChem-05122015073D

 37 38  0     1  0  0  0  0  0999 V2000
   56.7019  154.8491   -6.1230 C   0  0  0  0  0  0  0  0  0  0  0  0
   55.2523  156.5508   -5.2357 C   0  0  0  0  0  0  0  0  0  0  0  0
   56.1009  153.9574   -5.2492 C   0  0  0  0  0  0  0  0  0  0  0  0
   56.2638  156.1686   -6.1099 C   0  0  0  0  0  0  0  0  0  0  0  0
   54.7160  155.5829   -4.4018 C   0  0  0  0  0  0  0  0  0  0  0  0
   53.6568  155.9259   -3.4685 C   0  0  0  0  0  0  0  0  0  0  0  0
   59.1684  161.7857   -4.1376 C   0  0  0  0  0  0  0  0  0  0  0  0
   60.0775  161.3445   -5.2721 C   0  0  0  0  0  0  0  0  0  0  0  0
   58.4331  159.5684   -3.8608 C   0  0  0  0  0  0  0  0  0  0  0  0
   59.3478  159.1195   -4.9974 C   0  0  1  0  0  0  0  0  0  0  0  0
   56.8808  157.1764   -7.0360 C   0  0  0  0  0  0  0  0  0  0  0  0
   58.7601  157.9379   -5.7521 C   0  0  0  0  0  0  0  0  0  0  0  0
   55.1157  154.2915   -4.3858 N   0  0  0  0  0  0  0  0  0  0  0  0
   54.0358  156.3257   -2.2668 N   0  0  0  0  0  0  0  0  0  0  0  0
   52.3004  155.8434   -3.8020 N   0  0  0  0  0  0  0  0  0  0  0  0
   57.4935  158.2917   -6.3047 N   0  0  0  0  0  0  0  0  0  0  0  0
   58.9983  160.7106   -3.2112 O   0  0  0  0  0  0  0  0  0  0  0  0
   59.5172  160.2016   -5.9224 O   0  0  0  0  0  0  0  0  0  0  0  0
   55.4278  156.3381   -2.1321 O   0  0  0  0  0  0  0  0  0  0  0  0
   57.4888  154.5198   -6.7929 H   0  0  0  0  0  0  0  0  0  0  0  0
   54.8958  157.5758   -5.2097 H   0  0  0  0  0  0  0  0  0  0  0  0
   56.4066  152.9168   -5.2202 H   0  0  0  0  0  0  0  0  0  0  0  0
   59.6065  162.6329   -3.6019 H   0  0  0  0  0  0  0  0  0  0  0  0
   58.1834  162.0873   -4.5125 H   0  0  0  0  0  0  0  0  0  0  0  0
   60.1816  162.1426   -6.0130 H   0  0  0  0  0  0  0  0  0  0  0  0
   61.0763  161.0852   -4.9024 H   0  0  0  0  0  0  0  0  0  0  0  0
   57.4339  159.8341   -4.2262 H   0  0  0  0  0  0  0  0  0  0  0  0
   58.3232  158.7759   -3.1139 H   0  0  0  0  0  0  0  0  0  0  0  0
   60.3360  158.8468   -4.6060 H   0  0  0  0  0  0  0  0  0  0  0  0
   57.6572  156.7100   -7.6522 H   0  0  0  0  0  0  0  0  0  0  0  0
   56.1321  157.5940   -7.7174 H   0  0  0  0  0  0  0  0  0  0  0  0
   58.6281  157.1095   -5.0652 H   0  0  0  0  0  0  0  0  0  0  0  0
   59.4306  157.6564   -6.5559 H   0  0  0  0  0  0  0  0  0  0  0  0
   51.9922  155.5580   -4.7245 H   0  0  0  0  0  0  0  0  0  0  0  0
   51.5765  156.1075   -3.1421 H   0  0  0  0  0  0  0  0  0  0  0  0
   57.5875  159.0825   -6.9577 H   0  0  0  0  0  0  0  0  0  0  0  0
   55.5320  156.6472   -1.2164 H   0  0  0  0  0  0  0  0  0  0  0  0
  1  3  1  0  0  0  0
  1  4  2  0  0  0  0
  2  4  1  0  0  0  0
  2  5  2  0  0  0  0
  3 13  2  0  0  0  0
  4 11  1  0  0  0  0
  5  6  1  0  0  0  0
  5 13  1  0  0  0  0
  6 14  2  0  0  0  0
  6 15  1  0  0  0  0
  7  8  1  0  0  0  0
  7 17  1  0  0  0  0
  8 18  1  0  0  0  0
  9 10  1  0  0  0  0
  9 17  1  0  0  0  0
 10 12  1  0  0  0  0
 10 18  1  0  0  0  0
 11 16  1  0  0  0  0
 12 16  1  0  0  0  0
 14 19  1  0  0  0  0
  1 20  1  0  0  0  0
  2 21  1  0  0  0  0
  3 22  1  0  0  0  0
  7 23  1  0  0  0  0
  7 24  1  0  0  0  0
  8 25  1  0  0  0  0
  8 26  1  0  0  0  0
  9 27  1  0  0  0  0
  9 28  1  0  0  0  0
 10 29  1  0  0  0  0
 11 30  1  0  0  0  0
 11 31  1  0  0  0  0
 12 32  1  0  0  0  0
 12 33  1  0  0  0  0
 15 34  1  0  0  0  0
 15 35  1  0  0  0  0
 16 36  1  0  0  0  0
 19 37  1  0  0  0  0
M  END
> <FRED Chemgauss4 score>
-8.269993

$$$$
C80043308	P125038908
  -OEChem-05122015073D

 39 40  0     1  0  0  0  0  0999 V2000
   54.8836  156.0745   -3.1745 C   0  0  0  0  0  0  0  0  0  0  0  0
   55.1973  156.0380   -4.5464 C   0  0  0  0  0  0  0  0  0  0  0  0
   54.0595  156.4874   -5.1708 C   0  0  0  0  0  0  0  0  0  0  0  0
   56.4435  155.6227   -5.2030 C   0  0  0  0  0  0  0  0  0  0  0  0
   58.9045  157.0927   -7.3254 C   0  0  0  0  0  0  0  0  0  0  0  0
   58.8407  158.5795   -6.9713 C   0  0  0  0  0  0  0  0  0  0  0  0
   58.6702  156.2183   -6.0967 C   0  0  0  0  0  0  0  0  0  0  0  0
   57.3435  158.0024   -5.0265 C   0  0  0  0  0  0  0  0  0  0  0  0
   57.5315  158.9208   -6.2411 C   0  0  1  0  0  0  0  0  0  0  0  0
   53.7218  156.6911   -6.5902 C   0  0  0  0  0  0  0  0  0  0  0  0
   57.5111  160.3877   -5.8205 C   0  0  0  0  0  0  0  0  0  0  0  0
   53.6438  156.5126   -2.9405 N   0  0  0  0  0  0  0  0  0  0  0  0
   53.1683  156.7557   -4.1738 N   0  0  0  0  0  0  0  0  0  0  0  0
   57.4222  156.5922   -5.4324 N   0  0  0  0  0  0  0  0  0  0  0  0
   54.3241  162.3241   -4.4543 N   0  0  0  0  0  0  0  0  0  0  0  0
   56.1691  160.8049   -5.5882 N   0  0  0  0  0  0  0  0  0  0  0  0
   56.5239  154.4353   -5.5144 O   0  0  0  0  0  0  0  0  0  0  0  0
   55.2816  160.3078   -3.1825 O   0  0  0  0  0  0  0  0  0  0  0  0
   56.7425  162.3233   -3.5672 O   0  0  0  0  0  0  0  0  0  0  0  0
   55.7112  161.4104   -4.0219 S   0  0  0  0  0  0  0  0  0  0  0  0
   55.5048  155.8005   -2.3335 H   0  0  0  0  0  0  0  0  0  0  0  0
   58.1400  156.8718   -8.0807 H   0  0  0  0  0  0  0  0  0  0  0  0
   59.8776  156.8576   -7.7704 H   0  0  0  0  0  0  0  0  0  0  0  0
   59.6999  158.8367   -6.3387 H   0  0  0  0  0  0  0  0  0  0  0  0
   58.9278  159.1765   -7.8867 H   0  0  0  0  0  0  0  0  0  0  0  0
   58.6562  155.1637   -6.3895 H   0  0  0  0  0  0  0  0  0  0  0  0
   59.4819  156.3480   -5.3712 H   0  0  0  0  0  0  0  0  0  0  0  0
   58.1346  158.1691   -4.2847 H   0  0  0  0  0  0  0  0  0  0  0  0
   56.3922  158.2259   -4.5365 H   0  0  0  0  0  0  0  0  0  0  0  0
   56.6982  158.7514   -6.9368 H   0  0  0  0  0  0  0  0  0  0  0  0
   53.2790  155.7815   -7.0307 H   0  0  0  0  0  0  0  0  0  0  0  0
   53.0000  157.5149   -6.7327 H   0  0  0  0  0  0  0  0  0  0  0  0
   54.6069  156.9569   -7.1951 H   0  0  0  0  0  0  0  0  0  0  0  0
   57.9390  160.9837   -6.6160 H   0  0  0  0  0  0  0  0  0  0  0  0
   58.0839  160.5012   -4.9097 H   0  0  0  0  0  0  0  0  0  0  0  0
   52.2209  157.1021   -4.2613 H   0  0  0  0  0  0  0  0  0  0  0  0
   53.5277  161.7796   -4.8125 H   0  0  0  0  0  0  0  0  0  0  0  0
   54.5005  163.1413   -5.0542 H   0  0  0  0  0  0  0  0  0  0  0  0
   55.4206  160.2201   -6.0357 H   0  0  0  0  0  0  0  0  0  0  0  0
  1  2  1  0  0  0  0
  1 12  2  0  0  0  0
  2  3  2  0  0  0  0
  2  4  1  0  0  0  0
  3 10  1  0  0  0  0
  3 13  1  0  0  0  0
  4 14  1  0  0  0  0
  4 17  2  0  0  0  0
  5  6  1  0  0  0  0
  5  7  1  0  0  0  0
  6  9  1  0  0  0  0
  7 14  1  0  0  0  0
  8  9  1  0  0  0  0
  8 14  1  0  0  0  0
  9 11  1  0  0  0  0
 11 16  1  0  0  0  0
 12 13  1  0  0  0  0
 15 20  1  0  0  0  0
 16 20  1  0  0  0  0
 18 20  2  0  0  0  0
 19 20  2  0  0  0  0
  1 21  1  0  0  0  0
  5 22  1  0  0  0  0
  5 23  1  0  0  0  0
  6 24  1  0  0  0  0
  6 25  1  0  0  0  0
  7 26  1  0  0  0  0
  7 27  1  0  0  0  0
  8 28  1  0  0  0  0
  8 29  1  0  0  0  0
  9 30  1  0  0  0  0
 10 31  1  0  0  0  0
 10 32  1  0  0  0  0
 10 33  1  0  0  0  0
 11 34  1  0  0  0  0
 11 35  1  0  0  0  0
 13 36  1  0  0  0  0
 15 37  1  0  0  0  0
 15 38  1  0  0  0  0
 16 39  1  0  0  0  0
M  END
> <FRED Chemgauss4 score>
-8.266836

$$$$
C37661522	P56014844
  -OEChem-05122015073D

 41 42  0     1  0  0  0  0  0999 V2000
   57.5956  160.7998    0.4301 C   0  0  0  0  0  0  0  0  0  0  0  0
   57.8902  161.6570   -0.6242 C   0  0  0  0  0  0  0  0  0  0  0  0
   56.7805  159.6944    0.2130 C   0  0  0  0  0  0  0  0  0  0  0  0
   57.3494  161.3671   -1.8665 C   0  0  0  0  0  0  0  0  0  0  0  0
   56.2892  159.4924   -1.0667 C   0  0  0  0  0  0  0  0  0  0  0  0
   53.4367  157.8439   -5.7530 C   0  0  0  0  0  0  0  0  0  0  0  0
   57.2348  155.8303   -5.1604 C   0  0  0  0  0  0  0  0  0  0  0  0
   57.5890  155.7074   -6.6322 C   0  0  0  0  0  0  0  0  0  0  0  0
   55.6595  154.4465   -6.3793 C   0  0  0  0  0  0  0  0  0  0  0  0
   55.8941  155.1130   -5.0282 C   0  0  2  0  0  0  0  0  0  0  0  0
   55.4009  158.3025   -1.3389 C   0  0  0  0  0  0  0  0  0  0  0  0
   54.8134  157.2228   -5.6993 C   0  0  0  0  0  0  0  0  0  0  0  0
   55.5228  157.7824   -2.7661 C   0  0  0  0  0  0  0  0  0  0  0  0
   56.5536  160.3031   -2.1158 N   0  0  0  0  0  0  0  0  0  0  0  0
   56.9778  154.4368   -7.0120 N   0  0  0  0  0  0  0  0  0  0  0  0
   52.4763  156.9524   -6.1805 N   0  0  0  0  0  0  0  0  0  0  0  0
   54.8122  156.0827   -4.7464 N   0  0  2  0  0  0  0  0  0  0  0  0
   53.1914  158.9975   -5.4110 O   0  0  0  0  0  0  0  0  0  0  0  0
   53.0724  156.9135   -3.0153 O   0  0  0  0  0  0  0  0  0  0  0  0
   54.8580  155.3053   -2.2713 O   0  0  0  0  0  0  0  0  0  0  0  0
   54.4324  156.4158   -3.1022 S   0  0  0  0  0  0  0  0  0  0  0  0
   58.0004  160.9928    1.4190 H   0  0  0  0  0  0  0  0  0  0  0  0
   58.5233  162.5247   -0.4782 H   0  0  0  0  0  0  0  0  0  0  0  0
   56.5431  159.0179    1.0270 H   0  0  0  0  0  0  0  0  0  0  0  0
   57.5490  162.0046   -2.7215 H   0  0  0  0  0  0  0  0  0  0  0  0
   57.9862  155.3044   -4.5578 H   0  0  0  0  0  0  0  0  0  0  0  0
   57.2148  156.8746   -4.8321 H   0  0  0  0  0  0  0  0  0  0  0  0
   57.1518  156.5313   -7.2084 H   0  0  0  0  0  0  0  0  0  0  0  0
   58.6703  155.7023   -6.7956 H   0  0  0  0  0  0  0  0  0  0  0  0
   55.2763  153.4279   -6.2645 H   0  0  0  0  0  0  0  0  0  0  0  0
   54.9482  155.0069   -6.9986 H   0  0  0  0  0  0  0  0  0  0  0  0
   55.9298  154.3799   -4.2148 H   0  0  0  0  0  0  0  0  0  0  0  0
   54.3588  158.5969   -1.1581 H   0  0  0  0  0  0  0  0  0  0  0  0
   55.6170  157.4960   -0.6266 H   0  0  0  0  0  0  0  0  0  0  0  0
   55.5563  157.9488   -5.3578 H   0  0  0  0  0  0  0  0  0  0  0  0
   55.0849  156.8490   -6.6903 H   0  0  0  0  0  0  0  0  0  0  0  0
   55.2436  158.5694   -3.4739 H   0  0  0  0  0  0  0  0  0  0  0  0
   56.5379  157.4498   -3.0037 H   0  0  0  0  0  0  0  0  0  0  0  0
   56.8921  154.3633   -8.0241 H   0  0  0  0  0  0  0  0  0  0  0  0
   52.7210  155.9971   -6.4191 H   0  0  0  0  0  0  0  0  0  0  0  0
   51.4985  157.2090   -6.2722 H   0  0  0  0  0  0  0  0  0  0  0  0
  1  2  1  0  0  0  0
  1  3  2  0  0  0  0
  2  4  2  0  0  0  0
  3  5  1  0  0  0  0
  4 14  1  0  0  0  0
  5 11  1  0  0  0  0
  5 14  2  0  0  0  0
  6 12  1  0  0  0  0
  6 16  1  0  0  0  0
  6 18  2  0  0  0  0
  7  8  1  0  0  0  0
  7 10  1  0  0  0  0
  8 15  1  0  0  0  0
  9 10  1  0  0  0  0
  9 15  1  0  0  0  0
 10 17  1  0  0  0  0
 11 13  1  0  0  0  0
 12 17  1  0  0  0  0
 13 21  1  0  0  0  0
 17 21  1  0  0  0  0
 19 21  2  0  0  0  0
 20 21  2  0  0  0  0
  1 22  1  0  0  0  0
  2 23  1  0  0  0  0
  3 24  1  0  0  0  0
  4 25  1  0  0  0  0
  7 26  1  0  0  0  0
  7 27  1  0  0  0  0
  8 28  1  0  0  0  0
  8 29  1  0  0  0  0
  9 30  1  0  0  0  0
  9 31  1  0  0  0  0
 10 32  1  0  0  0  0
 11 33  1  0  0  0  0
 11 34  1  0  0  0  0
 12 35  1  0  0  0  0
 12 36  1  0  0  0  0
 13 37  1  0  0  0  0
 13 38  1  0  0  0  0
 15 39  1  0  0  0  0
 16 40  1  0  0  0  0
 16 41  1  0  0  0  0
M  END
> <FRED Chemgauss4 score>
-8.262568

$$$$
C44265826	P66858087
  -OEChem-05122015073D

 32 33  0     1  0  0  0  0  0999 V2000
   59.7508  161.6852   -2.4809 C   0  0  0  0  0  0  0  0  0  0  0  0
   58.5914  162.2590   -3.0023 C   0  0  0  0  0  0  0  0  0  0  0  0
   59.6696  160.5236   -1.7129 C   0  0  0  0  0  0  0  0  0  0  0  0
   57.2693  160.5098   -1.9876 C   0  0  0  0  0  0  0  0  0  0  0  0
   57.3506  161.6713   -2.7557 C   0  0  0  0  0  0  0  0  0  0  0  0
   58.4289  159.9359   -1.4662 C   0  0  0  0  0  0  0  0  0  0  0  0
   55.6460  158.6477   -2.4899 C   0  0  0  0  0  0  0  0  0  0  0  0
   54.7473  156.8931   -3.1168 C   0  0  0  0  0  0  0  0  0  0  0  0
   54.3130  155.1230   -5.8644 C   0  0  0  0  0  0  0  0  0  0  0  0
   55.9124  159.8669   -1.7184 C   0  0  0  0  0  0  0  0  0  0  0  0
   53.9065  155.6503   -3.3749 C   0  0  2  0  0  0  0  0  0  0  0  0
   53.3346  155.6441   -4.8137 C   0  0  2  0  0  0  0  0  0  0  0  0
   54.6008  157.8188   -2.2030 N   0  0  0  0  0  0  0  0  0  0  0  0
   56.4134  158.2797   -3.5201 N   0  0  0  0  0  0  0  0  0  0  0  0
   52.8486  155.5340   -2.3652 N   0  0  0  0  0  0  0  0  0  0  0  0
   55.8059  157.0916   -3.9453 O   0  0  0  0  0  0  0  0  0  0  0  0
   52.1805  154.7977   -4.8535 O   0  0  0  0  0  0  0  0  0  0  0  0
   55.9411  162.4149   -3.4209 Cl  0  0  0  0  0  0  0  0  0  0  0  0
   58.3748  158.4962   -0.5140 Cl  0  0  0  0  0  0  0  0  0  0  0  0
   60.7166  162.1436   -2.6723 H   0  0  0  0  0  0  0  0  0  0  0  0
   58.6726  163.1654   -3.5971 H   0  0  0  0  0  0  0  0  0  0  0  0
   60.5831  160.0895   -1.3146 H   0  0  0  0  0  0  0  0  0  0  0  0
   54.6790  154.1217   -5.6209 H   0  0  0  0  0  0  0  0  0  0  0  0
   55.1709  155.7963   -5.9690 H   0  0  0  0  0  0  0  0  0  0  0  0
   53.8282  155.0783   -6.8462 H   0  0  0  0  0  0  0  0  0  0  0  0
   55.8357  159.6852   -0.6230 H   0  0  0  0  0  0  0  0  0  0  0  0
   55.1312  160.6408   -1.8902 H   0  0  0  0  0  0  0  0  0  0  0  0
   54.5576  154.7723   -3.2676 H   0  0  0  0  0  0  0  0  0  0  0  0
   53.0050  156.6459   -5.1119 H   0  0  0  0  0  0  0  0  0  0  0  0
   53.0522  155.8466   -1.4441 H   0  0  0  0  0  0  0  0  0  0  0  0
   52.0596  154.9710   -2.5851 H   0  0  0  0  0  0  0  0  0  0  0  0
   51.8242  154.8697   -5.7506 H   0  0  0  0  0  0  0  0  0  0  0  0
  1  2  1  0  0  0  0
  1  3  2  0  0  0  0
  2  5  2  0  0  0  0
  3  6  1  0  0  0  0
  4  5  1  0  0  0  0
  4  6  2  0  0  0  0
  4 10  1  0  0  0  0
  5 18  1  0  0  0  0
  6 19  1  0  0  0  0
  7 10  1  0  0  0  0
  7 13  1  0  0  0  0
  7 14  2  0  0  0  0
  8 11  1  0  0  0  0
  8 13  2  0  0  0  0
  8 16  1  0  0  0  0
  9 12  1  0  0  0  0
 11 12  1  0  0  0  0
 11 15  1  0  0  0  0
 12 17  1  0  0  0  0
 14 16  1  0  0  0  0
  1 20  1  0  0  0  0
  2 21  1  0  0  0  0
  3 22  1  0  0  0  0
  9 23  1  0  0  0  0
  9 24  1  0  0  0  0
  9 25  1  0  0  0  0
 10 26  1  0  0  0  0
 10 27  1  0  0  0  0
 11 28  1  0  0  0  0
 12 29  1  0  0  0  0
 15 30  1  0  0  0  0
 15 31  1  0  0  0  0
 17 32  1  0  0  0  0
M  END
> <FRED Chemgauss4 score>
-8.260931

$$$$
C84057466	P131528030
  -OEChem-05122015073D

 28 29  0     1  0  0  0  0  0999 V2000
   55.6754  153.8699   -6.9843 C   0  0  0  0  0  0  0  0  0  0  0  0
   56.6531  154.7209   -6.5249 C   0  0  0  0  0  0  0  0  0  0  0  0
   54.8084  155.5873   -5.9228 C   0  0  0  0  0  0  0  0  0  0  0  0
   55.9343  152.6687   -7.7107 C   0  0  0  0  0  0  0  0  0  0  0  0
   58.2904  153.3797   -7.3994 C   0  0  0  0  0  0  0  0  0  0  0  0
   54.6320  156.4198   -2.8942 C   0  0  0  0  0  0  0  0  0  0  0  0
   53.7559  156.4527   -5.3581 C   0  0  2  0  0  0  0  0  0  0  0  0
   54.2349  157.2614   -4.1053 C   0  0  1  0  0  0  0  0  0  0  0  0
   56.1084  155.7901   -5.8639 N   0  0  0  0  0  0  0  0  0  0  0  0
   58.0230  154.4797   -6.7333 N   0  0  0  0  0  0  0  0  0  0  0  0
   54.4960  154.4336   -6.5938 N   0  0  0  0  0  0  0  0  0  0  0  0
   57.3075  152.4953   -7.8784 N   0  0  0  0  0  0  0  0  0  0  0  0
   59.5819  153.0119   -7.6791 N   0  0  0  0  0  0  0  0  0  0  0  0
   52.5264  155.6892   -5.0288 N   0  0  0  0  0  0  0  0  0  0  0  0
   55.0816  151.8939   -8.1300 O   0  0  0  0  0  0  0  0  0  0  0  0
   53.1675  158.1213   -3.6914 O   0  0  0  0  0  0  0  0  0  0  0  0
   53.8261  155.7510   -2.5794 H   0  0  0  0  0  0  0  0  0  0  0  0
   54.9114  157.0577   -2.0484 H   0  0  0  0  0  0  0  0  0  0  0  0
   55.5101  155.8074   -3.1283 H   0  0  0  0  0  0  0  0  0  0  0  0
   53.4376  157.2130   -6.1072 H   0  0  0  0  0  0  0  0  0  0  0  0
   55.0791  157.9077   -4.3716 H   0  0  0  0  0  0  0  0  0  0  0  0
   53.5676  154.0705   -6.7668 H   0  0  0  0  0  0  0  0  0  0  0  0
   57.6205  151.6709   -8.3828 H   0  0  0  0  0  0  0  0  0  0  0  0
   60.3169  153.6009   -7.3640 H   0  0  0  0  0  0  0  0  0  0  0  0
   59.7318  152.1709   -8.1858 H   0  0  0  0  0  0  0  0  0  0  0  0
   52.2802  154.9565   -5.6407 H   0  0  0  0  0  0  0  0  0  0  0  0
   51.9278  156.0807   -4.3501 H   0  0  0  0  0  0  0  0  0  0  0  0
   53.5214  158.6630   -2.9715 H   0  0  0  0  0  0  0  0  0  0  0  0
  1  2  2  0  0  0  0
  1  4  1  0  0  0  0
  1 11  1  0  0  0  0
  2  9  1  0  0  0  0
  2 10  1  0  0  0  0
  3  7  1  0  0  0  0
  3  9  2  0  0  0  0
  3 11  1  0  0  0  0
  4 12  1  0  0  0  0
  4 15  2  0  0  0  0
  5 10  2  0  0  0  0
  5 12  1  0  0  0  0
  5 13  1  0  0  0  0
  6  8  1  0  0  0  0
  7  8  1  0  0  0  0
  7 14  1  0  0  0  0
  8 16  1  0  0  0  0
  6 17  1  0  0  0  0
  6 18  1  0  0  0  0
  6 19  1  0  0  0  0
  7 20  1  0  0  0  0
  8 21  1  0  0  0  0
 11 22  1  0  0  0  0
 12 23  1  0  0  0  0
 13 24  1  0  0  0  0
 13 25  1  0  0  0  0
 14 26  1  0  0  0  0
 14 27  1  0  0  0  0
 16 28  1  0  0  0  0
M  END
> <FRED Chemgauss4 score>
-8.257856

$$$$
TBOA
  -OEChem-05122015073D

 30 30  0     1  0  0  0  0  0999 V2000
   60.0615  154.9542   -6.9149 C   0  0  0  0  0  0  0  0  0  0  0  0
   59.6765  156.0910   -7.6256 C   0  0  0  0  0  0  0  0  0  0  0  0
   59.1304  154.2738   -6.1302 C   0  0  0  0  0  0  0  0  0  0  0  0
   58.3606  156.5474   -7.5515 C   0  0  0  0  0  0  0  0  0  0  0  0
   57.8145  154.7302   -6.0560 C   0  0  0  0  0  0  0  0  0  0  0  0
   57.4295  155.8671   -6.7666 C   0  0  0  0  0  0  0  0  0  0  0  0
   53.6999  156.0929   -2.8073 C   0  0  0  0  0  0  0  0  0  0  0  0
   54.1455  157.9369   -4.9449 C   0  0  0  0  0  0  0  0  0  0  0  0
   56.0138  156.3577   -6.6862 C   0  0  0  0  0  0  0  0  0  0  0  0
   53.4029  155.6217   -4.2238 C   0  0  2  0  0  0  0  0  0  0  0  0
   54.1326  156.4600   -5.2814 C   0  0  2  0  0  0  0  0  0  0  0  0
   51.9546  155.7281   -4.4289 N   0  0  0  0  0  0  0  0  0  0  0  0
   54.0296  157.2301   -2.4951 O   0  0  0  0  0  0  0  0  0  0  0  0
   55.1465  158.6089   -4.7413 O   0  0  0  0  0  0  0  0  0  0  0  0
   53.5754  155.0907   -1.8983 O   0  0  0  0  0  0  0  0  0  0  0  0
   52.8827  158.4272   -4.8652 O   0  0  0  0  0  0  0  0  0  0  0  0
   55.4767  156.0184   -5.4149 O   0  0  0  0  0  0  0  0  0  0  0  0
   61.0859  154.5981   -6.9739 H   0  0  0  0  0  0  0  0  0  0  0  0
   60.4011  156.6203   -8.2376 H   0  0  0  0  0  0  0  0  0  0  0  0
   59.4295  153.3880   -5.5776 H   0  0  0  0  0  0  0  0  0  0  0  0
   58.0696  157.4342   -8.1085 H   0  0  0  0  0  0  0  0  0  0  0  0
   57.0959  154.1938   -5.4419 H   0  0  0  0  0  0  0  0  0  0  0  0
   55.9678  157.4445   -6.8148 H   0  0  0  0  0  0  0  0  0  0  0  0
   55.3997  155.9000   -7.4693 H   0  0  0  0  0  0  0  0  0  0  0  0
   53.6597  154.5600   -4.3066 H   0  0  0  0  0  0  0  0  0  0  0  0
   53.6516  156.3521   -6.2618 H   0  0  0  0  0  0  0  0  0  0  0  0
   51.3630  155.5618   -3.6476 H   0  0  0  0  0  0  0  0  0  0  0  0
   51.6208  155.7580   -5.3649 H   0  0  0  0  0  0  0  0  0  0  0  0
   53.7681  155.3392   -0.9693 H   0  0  0  0  0  0  0  0  0  0  0  0
   52.8740  159.3785   -4.6262 H   0  0  0  0  0  0  0  0  0  0  0  0
  1  2  2  0  0  0  0
  1  3  1  0  0  0  0
  2  4  1  0  0  0  0
  3  5  2  0  0  0  0
  4  6  2  0  0  0  0
  5  6  1  0  0  0  0
  6  9  1  0  0  0  0
  7 10  1  0  0  0  0
  7 13  2  0  0  0  0
  7 15  1  0  0  0  0
  8 11  1  0  0  0  0
  8 14  2  0  0  0  0
  8 16  1  0  0  0  0
  9 17  1  0  0  0  0
 10 11  1  0  0  0  0
 10 12  1  0  0  0  0
 11 17  1  0  0  0  0
  1 18  1  0  0  0  0
  2 19  1  0  0  0  0
  3 20  1  0  0  0  0
  4 21  1  0  0  0  0
  5 22  1  0  0  0  0
  9 23  1  0  0  0  0
  9 24  1  0  0  0  0
 10 25  1  0  0  0  0
 11 26  1  0  0  0  0
 12 27  1  0  0  0  0
 12 28  1  0  0  0  0
 15 29  1  0  0  0  0
 16 30  1  0  0  0  0
M  END
> <FRED Chemgauss4 score>
-8.245858

$$$$
C41043428	P138194779
  -OEChem-05122015073D

 29 29  0     0  0  0  0  0  0999 V2000
   53.5150  155.9420   -5.2495 C   0  0  0  0  0  0  0  0  0  0  0  0
   54.5989  155.3770   -4.6232 C   0  0  0  0  0  0  0  0  0  0  0  0
   54.4055  155.6631   -3.2584 C   0  0  0  0  0  0  0  0  0  0  0  0
   55.6848  154.6485   -5.2981 C   0  0  0  0  0  0  0  0  0  0  0  0
   57.0370  154.5779   -7.3574 C   0  0  0  0  0  0  0  0  0  0  0  0
   56.6964  156.7653   -6.2628 C   0  0  0  0  0  0  0  0  0  0  0  0
   58.4244  154.1080   -6.9598 C   0  0  0  0  0  0  0  0  0  0  0  0
   57.4212  157.1570   -4.9881 C   0  0  0  0  0  0  0  0  0  0  0  0
   53.2867  156.3562   -3.0305 N   0  0  0  0  0  0  0  0  0  0  0  0
   52.7675  156.5104   -4.2604 N   0  0  0  0  0  0  0  0  0  0  0  0
   55.2884  155.2574   -2.3085 N   0  0  0  0  0  0  0  0  0  0  0  0
   56.4416  155.3264   -6.2594 N   0  0  0  0  0  0  0  0  0  0  0  0
   55.8557  153.4808   -4.9497 O   0  0  0  0  0  0  0  0  0  0  0  0
   59.2473  155.2368   -6.6944 O   0  0  0  0  0  0  0  0  0  0  0  0
   57.6985  158.5514   -5.0119 O   0  0  0  0  0  0  0  0  0  0  0  0
   53.2124  155.9926   -6.2860 H   0  0  0  0  0  0  0  0  0  0  0  0
   57.0755  155.2299   -8.2358 H   0  0  0  0  0  0  0  0  0  0  0  0
   56.3925  153.7210   -7.5752 H   0  0  0  0  0  0  0  0  0  0  0  0
   55.7360  157.2835   -6.3483 H   0  0  0  0  0  0  0  0  0  0  0  0
   57.3099  157.0011   -7.1375 H   0  0  0  0  0  0  0  0  0  0  0  0
   58.8786  153.5443   -7.7806 H   0  0  0  0  0  0  0  0  0  0  0  0
   58.3946  153.4760   -6.0662 H   0  0  0  0  0  0  0  0  0  0  0  0
   58.3748  156.6240   -4.9203 H   0  0  0  0  0  0  0  0  0  0  0  0
   56.8227  156.9321   -4.0993 H   0  0  0  0  0  0  0  0  0  0  0  0
   51.8957  157.0170   -4.3532 H   0  0  0  0  0  0  0  0  0  0  0  0
   56.1075  154.6854   -2.5424 H   0  0  0  0  0  0  0  0  0  0  0  0
   55.1215  155.4260   -1.3102 H   0  0  0  0  0  0  0  0  0  0  0  0
   60.1205  154.8937   -6.4451 H   0  0  0  0  0  0  0  0  0  0  0  0
   58.1599  158.7588   -4.1834 H   0  0  0  0  0  0  0  0  0  0  0  0
  1  2  2  0  0  0  0
  1 10  1  0  0  0  0
  2  3  1  0  0  0  0
  2  4  1  0  0  0  0
  3  9  2  0  0  0  0
  3 11  1  0  0  0  0
  4 12  1  0  0  0  0
  4 13  2  0  0  0  0
  5  7  1  0  0  0  0
  5 12  1  0  0  0  0
  6  8  1  0  0  0  0
  6 12  1  0  0  0  0
  7 14  1  0  0  0  0
  8 15  1  0  0  0  0
  9 10  1  0  0  0  0
  1 16  1  0  0  0  0
  5 17  1  0  0  0  0
  5 18  1  0  0  0  0
  6 19  1  0  0  0  0
  6 20  1  0  0  0  0
  7 21  1  0  0  0  0
  7 22  1  0  0  0  0
  8 23  1  0  0  0  0
  8 24  1  0  0  0  0
 10 25  1  0  0  0  0
 11 26  1  0  0  0  0
 11 27  1  0  0  0  0
 14 28  1  0  0  0  0
 15 29  1  0  0  0  0
M  END
> <FRED Chemgauss4 score>
-8.226315

$$$$
C78952131	P123232536
  -OEChem-05122015073D

 33 34  0     0  0  0  0  0  0999 V2000
   55.9939  156.8350   -6.0401 C   0  0  0  0  0  0  0  0  0  0  0  0
   55.5539  159.4392   -2.6440 C   0  0  0  0  0  0  0  0  0  0  0  0
   56.6886  155.6591   -6.3233 C   0  0  0  0  0  0  0  0  0  0  0  0
   56.3314  159.9429   -1.6013 C   0  0  0  0  0  0  0  0  0  0  0  0
   55.2963  154.4589   -4.7555 C   0  0  0  0  0  0  0  0  0  0  0  0
   57.7214  161.1055   -3.1993 C   0  0  0  0  0  0  0  0  0  0  0  0
   54.6016  155.6348   -4.4722 C   0  0  0  0  0  0  0  0  0  0  0  0
   54.9504  156.8229   -5.1145 C   0  0  0  0  0  0  0  0  0  0  0  0
   55.8601  159.7686   -3.9644 C   0  0  0  0  0  0  0  0  0  0  0  0
   56.3398  154.4711   -5.6811 C   0  0  0  0  0  0  0  0  0  0  0  0
   57.4152  160.7761   -1.8789 C   0  0  0  0  0  0  0  0  0  0  0  0
   56.9438  160.6018   -4.2420 C   0  0  0  0  0  0  0  0  0  0  0  0
   53.5171  155.5944   -3.5004 C   0  0  0  0  0  0  0  0  0  0  0  0
   54.2229  158.0963   -4.8296 C   0  0  0  0  0  0  0  0  0  0  0  0
   53.8481  155.8227   -2.2430 N   0  0  0  0  0  0  0  0  0  0  0  0
   52.1940  155.3285   -3.8618 N   0  0  0  0  0  0  0  0  0  0  0  0
   55.0679  159.2524   -4.9804 N   0  0  0  0  0  0  0  0  0  0  0  0
   55.2182  156.0643   -2.0999 O   0  0  0  0  0  0  0  0  0  0  0  0
   57.0072  153.3420   -5.9528 F   0  0  0  0  0  0  0  0  0  0  0  0
   58.3729  161.3984   -0.5916 Cl  0  0  0  0  0  0  0  0  0  0  0  0
   57.3555  161.0368   -5.8624 Cl  0  0  0  0  0  0  0  0  0  0  0  0
   56.2734  157.7559   -6.5451 H   0  0  0  0  0  0  0  0  0  0  0  0
   54.7115  158.7913   -2.4151 H   0  0  0  0  0  0  0  0  0  0  0  0
   57.5010  155.6684   -7.0438 H   0  0  0  0  0  0  0  0  0  0  0  0
   56.0807  159.6783   -0.5772 H   0  0  0  0  0  0  0  0  0  0  0  0
   55.0344  153.5259   -4.2631 H   0  0  0  0  0  0  0  0  0  0  0  0
   58.5667  161.7562   -3.4136 H   0  0  0  0  0  0  0  0  0  0  0  0
   53.3670  158.2204   -5.5062 H   0  0  0  0  0  0  0  0  0  0  0  0
   53.8255  158.1101   -3.8064 H   0  0  0  0  0  0  0  0  0  0  0  0
   51.9213  155.1710   -4.8252 H   0  0  0  0  0  0  0  0  0  0  0  0
   51.4500  155.3253   -3.1721 H   0  0  0  0  0  0  0  0  0  0  0  0
   55.0886  159.7190   -5.8823 H   0  0  0  0  0  0  0  0  0  0  0  0
   55.2912  156.2093   -1.1414 H   0  0  0  0  0  0  0  0  0  0  0  0
  1  3  1  0  0  0  0
  1  8  2  0  0  0  0
  2  4  2  0  0  0  0
  2  9  1  0  0  0  0
  3 10  2  0  0  0  0
  4 11  1  0  0  0  0
  5  7  2  0  0  0  0
  5 10  1  0  0  0  0
  6 11  2  0  0  0  0
  6 12  1  0  0  0  0
  7  8  1  0  0  0  0
  7 13  1  0  0  0  0
  8 14  1  0  0  0  0
  9 12  2  0  0  0  0
  9 17  1  0  0  0  0
 10 19  1  0  0  0  0
 11 20  1  0  0  0  0
 12 21  1  0  0  0  0
 13 15  2  0  0  0  0
 13 16  1  0  0  0  0
 14 17  1  0  0  0  0
 15 18  1  0  0  0  0
  1 22  1  0  0  0  0
  2 23  1  0  0  0  0
  3 24  1  0  0  0  0
  4 25  1  0  0  0  0
  5 26  1  0  0  0  0
  6 27  1  0  0  0  0
 14 28  1  0  0  0  0
 14 29  1  0  0  0  0
 16 30  1  0  0  0  0
 16 31  1  0  0  0  0
 17 32  1  0  0  0  0
 18 33  1  0  0  0  0
M  END
> <FRED Chemgauss4 score>
-8.214307

$$$$
C37052890	P55080318
  -OEChem-05122015073D

 32 33  0     0  0  0  0  0  0999 V2000
   55.1544  154.1005   -6.0016 C   0  0  0  0  0  0  0  0  0  0  0  0
   59.1183  160.7999   -1.4139 C   0  0  0  0  0  0  0  0  0  0  0  0
   55.8120  154.7872   -4.9811 C   0  0  0  0  0  0  0  0  0  0  0  0
   54.0286  154.6601   -6.6060 C   0  0  0  0  0  0  0  0  0  0  0  0
   58.0281  160.5412   -0.5493 C   0  0  0  0  0  0  0  0  0  0  0  0
   54.2181  156.5931   -5.1691 C   0  0  0  0  0  0  0  0  0  0  0  0
   58.8821  160.0699   -2.5555 C   0  0  0  0  0  0  0  0  0  0  0  0
   55.3439  156.0335   -4.5648 C   0  0  0  0  0  0  0  0  0  0  0  0
   53.5605  155.9064   -6.1897 C   0  0  0  0  0  0  0  0  0  0  0  0
   57.2032  159.6717   -1.2242 C   0  0  0  0  0  0  0  0  0  0  0  0
   56.0498  156.7702   -3.4685 C   0  0  0  0  0  0  0  0  0  0  0  0
   55.8992  159.0142   -0.8758 C   0  0  0  0  0  0  0  0  0  0  0  0
   52.4224  156.4723   -6.8012 N   0  0  0  0  0  0  0  0  0  0  0  0
   55.9987  157.5438   -0.9017 N   0  0  0  0  0  0  0  0  0  0  0  0
   53.8062  157.3779   -2.2656 O   0  0  0  0  0  0  0  0  0  0  0  0
   55.0222  155.2735   -1.5952 O   0  0  0  0  0  0  0  0  0  0  0  0
   57.7166  159.3795   -2.4479 O   0  0  0  0  0  0  0  0  0  0  0  0
   55.0413  156.6637   -2.0079 S   0  0  0  0  0  0  0  0  0  0  0  0
   55.5191  153.1300   -6.3258 H   0  0  0  0  0  0  0  0  0  0  0  0
   59.9700  161.4382   -1.2283 H   0  0  0  0  0  0  0  0  0  0  0  0
   56.6885  154.3436   -4.5157 H   0  0  0  0  0  0  0  0  0  0  0  0
   53.5239  154.1165   -7.4006 H   0  0  0  0  0  0  0  0  0  0  0  0
   57.8669  160.9402    0.4421 H   0  0  0  0  0  0  0  0  0  0  0  0
   53.8545  157.5651   -4.8435 H   0  0  0  0  0  0  0  0  0  0  0  0
   59.4178  159.9412   -3.4845 H   0  0  0  0  0  0  0  0  0  0  0  0
   56.1901  157.8276   -3.7096 H   0  0  0  0  0  0  0  0  0  0  0  0
   57.0254  156.3309   -3.2417 H   0  0  0  0  0  0  0  0  0  0  0  0
   55.5719  159.3125    0.1262 H   0  0  0  0  0  0  0  0  0  0  0  0
   55.1110  159.3089   -1.5766 H   0  0  0  0  0  0  0  0  0  0  0  0
   51.9885  155.9921   -7.5633 H   0  0  0  0  0  0  0  0  0  0  0  0
   52.1251  157.3866   -6.5262 H   0  0  0  0  0  0  0  0  0  0  0  0
   56.9454  157.1864   -0.7192 H   0  0  0  0  0  0  0  0  0  0  0  0
  1  3  1  0  0  0  0
  1  4  2  0  0  0  0
  2  5  1  0  0  0  0
  2  7  2  0  0  0  0
  3  8  2  0  0  0  0
  4  9  1  0  0  0  0
  5 10  2  0  0  0  0
  6  8  1  0  0  0  0
  6  9  2  0  0  0  0
  7 17  1  0  0  0  0
  8 11  1  0  0  0  0
  9 13  1  0  0  0  0
 10 12  1  0  0  0  0
 10 17  1  0  0  0  0
 11 18  1  0  0  0  0
 12 14  1  0  0  0  0
 14 18  1  0  0  0  0
 15 18  2  0  0  0  0
 16 18  2  0  0  0  0
  1 19  1  0  0  0  0
  2 20  1  0  0  0  0
  3 21  1  0  0  0  0
  4 22  1  0  0  0  0
  5 23  1  0  0  0  0
  6 24  1  0  0  0  0
  7 25  1  0  0  0  0
 11 26  1  0  0  0  0
 11 27  1  0  0  0  0
 12 28  1  0  0  0  0
 12 29  1  0  0  0  0
 13 30  1  0  0  0  0
 13 31  1  0  0  0  0
 14 32  1  0  0  0  0
M  END
> <FRED Chemgauss4 score>
-8.196411

$$$$
C84174532	P131723943
  -OEChem-05122015073D

 39 39  0     1  0  0  0  0  0999 V2000
   56.3189  155.0998   -7.0443 C   0  0  0  0  0  0  0  0  0  0  0  0
   56.7496  154.4186   -5.7503 C   0  0  0  0  0  0  0  0  0  0  0  0
   56.0816  156.5897   -6.8123 C   0  0  0  0  0  0  0  0  0  0  0  0
   55.7512  154.6678   -4.6269 C   0  0  0  0  0  0  0  0  0  0  0  0
   55.0991  156.8651   -5.6668 C   0  0  1  0  0  0  0  0  0  0  0  0
   57.0373  159.7841   -0.6880 C   0  0  0  0  0  0  0  0  0  0  0  0
   58.3474  159.3434   -2.7744 C   0  0  0  0  0  0  0  0  0  0  0  0
   53.6555  156.5301   -6.0365 C   0  0  0  0  0  0  0  0  0  0  0  0
   55.8649  158.9323   -2.7818 C   0  0  0  0  0  0  0  0  0  0  0  0
   56.9991  159.8103   -2.2193 C   0  0  0  0  0  0  0  0  0  0  0  0
   56.0198  157.5414   -2.3791 N   0  5  0  0  0  0  0  0  0  0  0  0
   55.5491  156.1321   -4.4381 N   0  0  1  0  0  0  0  0  0  0  0  0
   53.0881  157.6599   -6.7998 N   0  3  0  0  0  0  0  0  0  0  0  0
   54.6528  155.3580   -2.2164 O   0  0  0  0  0  0  0  0  0  0  0  0
   53.6280  157.3120   -3.3184 O   0  0  0  0  0  0  0  0  0  0  0  0
   54.8578  156.6092   -2.9484 S   0  0  0  0  0  0  0  0  0  0  0  0
   57.0928  154.9644   -7.8098 H   0  0  0  0  0  0  0  0  0  0  0  0
   55.4039  154.6318   -7.4244 H   0  0  0  0  0  0  0  0  0  0  0  0
   56.8467  153.3374   -5.9239 H   0  0  0  0  0  0  0  0  0  0  0  0
   57.7413  154.7837   -5.4527 H   0  0  0  0  0  0  0  0  0  0  0  0
   57.0475  157.0766   -6.6054 H   0  0  0  0  0  0  0  0  0  0  0  0
   55.7030  157.0373   -7.7463 H   0  0  0  0  0  0  0  0  0  0  0  0
   54.7991  154.1963   -4.8969 H   0  0  0  0  0  0  0  0  0  0  0  0
   56.1032  154.2182   -3.6903 H   0  0  0  0  0  0  0  0  0  0  0  0
   55.1443  157.9651   -5.4211 H   0  0  0  0  0  0  0  0  0  0  0  0
   57.1889  158.7626   -0.3224 H   0  0  0  0  0  0  0  0  0  0  0  0
   56.1008  160.1590   -0.2612 H   0  0  0  0  0  0  0  0  0  0  0  0
   57.8569  160.3964   -0.2989 H   0  0  0  0  0  0  0  0  0  0  0  0
   58.5506  158.3074   -2.4830 H   0  0  0  0  0  0  0  0  0  0  0  0
   59.1633  159.9634   -2.3881 H   0  0  0  0  0  0  0  0  0  0  0  0
   58.3678  159.3984   -3.8683 H   0  0  0  0  0  0  0  0  0  0  0  0
   53.0464  156.3936   -5.1453 H   0  0  0  0  0  0  0  0  0  0  0  0
   53.6106  155.6467   -6.6703 H   0  0  0  0  0  0  0  0  0  0  0  0
   54.9026  159.3152   -2.4186 H   0  0  0  0  0  0  0  0  0  0  0  0
   55.8365  159.0228   -3.8749 H   0  0  0  0  0  0  0  0  0  0  0  0
   56.8460  160.8497   -2.5394 H   0  0  0  0  0  0  0  0  0  0  0  0
   52.8467  157.3792   -7.7588 H   0  0  0  0  0  0  0  0  0  0  0  0
   53.7552  158.4397   -6.8632 H   0  0  0  0  0  0  0  0  0  0  0  0
   52.2326  158.0182   -6.3564 H   0  0  0  0  0  0  0  0  0  0  0  0
  1  2  1  0  0  0  0
  1  3  1  0  0  0  0
  2  4  1  0  0  0  0
  3  5  1  0  0  0  0
  4 12  1  0  0  0  0
  5  8  1  0  0  0  0
  5 12  1  0  0  0  0
  6 10  1  0  0  0  0
  7 10  1  0  0  0  0
  8 13  1  0  0  0  0
  9 10  1  0  0  0  0
  9 11  1  0  0  0  0
 11 16  1  0  0  0  0
 12 16  1  0  0  0  0
 14 16  2  0  0  0  0
 15 16  2  0  0  0  0
  1 17  1  0  0  0  0
  1 18  1  0  0  0  0
  2 19  1  0  0  0  0
  2 20  1  0  0  0  0
  3 21  1  0  0  0  0
  3 22  1  0  0  0  0
  4 23  1  0  0  0  0
  4 24  1  0  0  0  0
  5 25  1  0  0  0  0
  6 26  1  0  0  0  0
  6 27  1  0  0  0  0
  6 28  1  0  0  0  0
  7 29  1  0  0  0  0
  7 30  1  0  0  0  0
  7 31  1  0  0  0  0
  8 32  1  0  0  0  0
  8 33  1  0  0  0  0
  9 34  1  0  0  0  0
  9 35  1  0  0  0  0
 10 36  1  0  0  0  0
 13 37  1  0  0  0  0
 13 38  1  0  0  0  0
 13 39  1  0  0  0  0
M  CHG  2  11  -1  13   1
M  END
> <FRED Chemgauss4 score>
-8.192858

$$$$
C98340352	P156414816
  -OEChem-05122015073D

 36 38  0     1  0  0  0  0  0999 V2000
   56.3524  155.3257   -6.2263 C   0  0  0  0  0  0  0  0  0  0  0  0
   57.7361  162.6886    0.0968 C   0  0  0  0  0  0  0  0  0  0  0  0
   58.7146  161.2898   -1.1624 C   0  0  0  0  0  0  0  0  0  0  0  0
   57.9387  162.0597   -1.9962 C   0  0  0  0  0  0  0  0  0  0  0  0
   55.6137  155.7189   -5.1300 C   0  0  0  0  0  0  0  0  0  0  0  0
   57.0315  157.3912   -5.1894 C   0  0  0  0  0  0  0  0  0  0  0  0
   57.5040  159.4989   -3.9016 C   0  0  0  0  0  0  0  0  0  0  0  0
   53.4249  155.8802   -3.8860 C   0  0  0  0  0  0  0  0  0  0  0  0
   59.5530  160.1662   -1.6344 C   0  0  0  0  0  0  0  0  0  0  0  0
   57.8271  161.9489   -3.4693 C   0  0  0  0  0  0  0  0  0  0  0  0
   59.7619  160.2524   -3.1633 C   0  0  0  0  0  0  0  0  0  0  0  0
   58.4858  160.6352   -3.9534 C   0  0  1  0  0  0  0  0  0  0  0  0
   54.4660  154.9884   -4.5567 C   0  0  0  0  0  0  0  0  0  0  0  0
   58.5833  161.6802    0.1419 N   0  0  0  0  0  0  0  0  0  0  0  0
   56.0019  156.9029   -4.5339 N   0  0  0  0  0  0  0  0  0  0  0  0
   57.3160  162.9574   -1.1812 N   0  0  0  0  0  0  0  0  0  0  0  0
   52.1564  155.7189   -4.4021 N   0  0  0  0  0  0  0  0  0  0  0  0
   57.7424  158.5847   -4.9198 N   0  0  0  0  0  0  0  0  0  0  0  0
   56.6358  159.4581   -3.0359 O   0  0  0  0  0  0  0  0  0  0  0  0
   53.6950  156.6633   -2.9797 O   0  0  0  0  0  0  0  0  0  0  0  0
   57.5844  156.4786   -6.5334 S   0  0  0  0  0  0  0  0  0  0  0  0
   56.2335  154.4467   -6.8440 H   0  0  0  0  0  0  0  0  0  0  0  0
   57.3871  163.2626    0.9435 H   0  0  0  0  0  0  0  0  0  0  0  0
   60.5245  160.1716   -1.1286 H   0  0  0  0  0  0  0  0  0  0  0  0
   59.0568  159.2215   -1.3836 H   0  0  0  0  0  0  0  0  0  0  0  0
   56.7788  162.0106   -3.7825 H   0  0  0  0  0  0  0  0  0  0  0  0
   58.3560  162.7974   -3.9209 H   0  0  0  0  0  0  0  0  0  0  0  0
   60.5269  161.0135   -3.3680 H   0  0  0  0  0  0  0  0  0  0  0  0
   60.1656  159.2979   -3.5221 H   0  0  0  0  0  0  0  0  0  0  0  0
   58.7455  160.7461   -5.0132 H   0  0  0  0  0  0  0  0  0  0  0  0
   53.9405  154.3966   -5.3315 H   0  0  0  0  0  0  0  0  0  0  0  0
   54.8014  154.2469   -3.8053 H   0  0  0  0  0  0  0  0  0  0  0  0
   56.6704  163.6844   -1.4604 H   0  0  0  0  0  0  0  0  0  0  0  0
   52.0029  155.0544   -5.1538 H   0  0  0  0  0  0  0  0  0  0  0  0
   51.3743  156.2551   -4.0412 H   0  0  0  0  0  0  0  0  0  0  0  0
   58.5152  158.7838   -5.5517 H   0  0  0  0  0  0  0  0  0  0  0  0
  1  5  2  0  0  0  0
  1 21  1  0  0  0  0
  2 14  2  0  0  0  0
  2 16  1  0  0  0  0
  3  4  2  0  0  0  0
  3  9  1  0  0  0  0
  3 14  1  0  0  0  0
  4 10  1  0  0  0  0
  4 16  1  0  0  0  0
  5 13  1  0  0  0  0
  5 15  1  0  0  0  0
  6 15  2  0  0  0  0
  6 18  1  0  0  0  0
  6 21  1  0  0  0  0
  7 12  1  0  0  0  0
  7 18  1  0  0  0  0
  7 19  2  0  0  0  0
  8 13  1  0  0  0  0
  8 17  1  0  0  0  0
  8 20  2  0  0  0  0
  9 11  1  0  0  0  0
 10 12  1  0  0  0  0
 11 12  1  0  0  0  0
  1 22  1  0  0  0  0
  2 23  1  0  0  0  0
  9 24  1  0  0  0  0
  9 25  1  0  0  0  0
 10 26  1  0  0  0  0
 10 27  1  0  0  0  0
 11 28  1  0  0  0  0
 11 29  1  0  0  0  0
 12 30  1  0  0  0  0
 13 31  1  0  0  0  0
 13 32  1  0  0  0  0
 16 33  1  0  0  0  0
 17 34  1  0  0  0  0
 17 35  1  0  0  0  0
 18 36  1  0  0  0  0
M  END
> <FRED Chemgauss4 score>
-8.179361

$$$$
C92306668	P144505057
  -OEChem-05122015073D

 39 42  0     1  0  0  0  0  0999 V2000
   60.3376  163.1912   -4.1608 C   0  0  0  0  0  0  0  0  0  0  0  0
   61.3448  163.6000   -5.0503 C   0  0  0  0  0  0  0  0  0  0  0  0
   59.6775  161.9726   -4.3422 C   0  0  0  0  0  0  0  0  0  0  0  0
   55.3003  157.4792   -3.0954 C   0  0  0  0  0  0  0  0  0  0  0  0
   56.5277  158.0152   -3.4956 C   0  0  0  0  0  0  0  0  0  0  0  0
   61.7074  162.7945   -6.1307 C   0  0  0  0  0  0  0  0  0  0  0  0
   57.4160  156.1740   -6.4732 C   0  0  0  0  0  0  0  0  0  0  0  0
   55.3017  155.9296   -4.9651 C   0  0  0  0  0  0  0  0  0  0  0  0
   58.4942  157.0224   -6.3702 C   0  0  0  0  0  0  0  0  0  0  0  0
   56.5393  156.4541   -5.3879 C   0  0  0  0  0  0  0  0  0  0  0  0
   60.0523  161.1759   -5.4100 C   0  0  0  0  0  0  0  0  0  0  0  0
   54.6950  156.4525   -3.8173 C   0  0  0  0  0  0  0  0  0  0  0  0
   57.1225  157.4827   -4.6449 C   0  0  0  0  0  0  0  0  0  0  0  0
   61.0516  161.5879   -6.2821 C   0  0  0  0  0  0  0  0  0  0  0  0
   60.6200  159.4919   -6.8566 C   0  0  0  0  0  0  0  0  0  0  0  0
   59.4948  159.8841   -5.8884 C   0  0  1  0  0  0  0  0  0  0  0  0
   53.3850  155.9008   -3.3619 C   0  0  0  0  0  0  0  0  0  0  0  0
   59.2429  158.8348   -4.8202 C   0  0  0  0  0  0  0  0  0  0  0  0
   58.3083  157.8077   -5.2643 N   0  0  0  0  0  0  0  0  0  0  0  0
   52.3542  156.9060   -3.3178 N   0  0  0  0  0  0  0  0  0  0  0  0
   61.2959  160.6947   -7.2953 O   0  0  0  0  0  0  0  0  0  0  0  0
   60.0632  163.8342   -3.3288 H   0  0  0  0  0  0  0  0  0  0  0  0
   61.8425  164.5536   -4.8968 H   0  0  0  0  0  0  0  0  0  0  0  0
   58.8862  161.6720   -3.6641 H   0  0  0  0  0  0  0  0  0  0  0  0
   54.8188  157.8774   -2.2051 H   0  0  0  0  0  0  0  0  0  0  0  0
   56.9941  158.8147   -2.9296 H   0  0  0  0  0  0  0  0  0  0  0  0
   62.4820  163.1085   -6.8212 H   0  0  0  0  0  0  0  0  0  0  0  0
   57.2740  155.4321   -7.2471 H   0  0  0  0  0  0  0  0  0  0  0  0
   54.8258  155.1285   -5.5247 H   0  0  0  0  0  0  0  0  0  0  0  0
   59.3736  157.1303   -6.9904 H   0  0  0  0  0  0  0  0  0  0  0  0
   61.3700  158.8437   -6.3846 H   0  0  0  0  0  0  0  0  0  0  0  0
   60.2255  158.9662   -7.7330 H   0  0  0  0  0  0  0  0  0  0  0  0
   58.5738  160.0851   -6.4493 H   0  0  0  0  0  0  0  0  0  0  0  0
   53.0390  155.1013   -4.0313 H   0  0  0  0  0  0  0  0  0  0  0  0
   53.4606  155.4638   -2.3571 H   0  0  0  0  0  0  0  0  0  0  0  0
   58.8320  159.2955   -3.9144 H   0  0  0  0  0  0  0  0  0  0  0  0
   60.1785  158.3391   -4.5364 H   0  0  0  0  0  0  0  0  0  0  0  0
   51.5779  156.7832   -2.6891 H   0  0  0  0  0  0  0  0  0  0  0  0
   52.3166  157.5998   -4.0461 H   0  0  0  0  0  0  0  0  0  0  0  0
  1  2  1  0  0  0  0
  1  3  2  0  0  0  0
  2  6  2  0  0  0  0
  3 11  1  0  0  0  0
  4  5  1  0  0  0  0
  4 12  2  0  0  0  0
  5 13  2  0  0  0  0
  6 14  1  0  0  0  0
  7  9  2  0  0  0  0
  7 10  1  0  0  0  0
  8 10  2  0  0  0  0
  8 12  1  0  0  0  0
  9 19  1  0  0  0  0
 10 13  1  0  0  0  0
 11 14  2  0  0  0  0
 11 16  1  0  0  0  0
 12 17  1  0  0  0  0
 13 19  1  0  0  0  0
 14 21  1  0  0  0  0
 15 16  1  0  0  0  0
 15 21  1  0  0  0  0
 16 18  1  0  0  0  0
 17 20  1  0  0  0  0
 18 19  1  0  0  0  0
  1 22  1  0  0  0  0
  2 23  1  0  0  0  0
  3 24  1  0  0  0  0
  4 25  1  0  0  0  0
  5 26  1  0  0  0  0
  6 27  1  0  0  0  0
  7 28  1  0  0  0  0
  8 29  1  0  0  0  0
  9 30  1  0  0  0  0
 15 31  1  0  0  0  0
 15 32  1  0  0  0  0
 16 33  1  0  0  0  0
 17 34  1  0  0  0  0
 17 35  1  0  0  0  0
 18 36  1  0  0  0  0
 18 37  1  0  0  0  0
 20 38  1  0  0  0  0
 20 39  1  0  0  0  0
M  END
> <FRED Chemgauss4 score>
-8.160841

$$$$
C19323396	P28918816
  -OEChem-05122015073D

 54 56  0     1  0  0  0  0  0999 V2000
   59.3567  161.4604   -1.7284 C   0  0  0  0  0  0  0  0  0  0  0  0
   57.6687  160.0659   -0.6025 C   0  0  0  0  0  0  0  0  0  0  0  0
   57.2727  162.5290   -0.9687 C   0  0  0  0  0  0  0  0  0  0  0  0
   58.0532  159.7746   -2.9649 C   0  0  0  0  0  0  0  0  0  0  0  0
   57.6568  162.2411   -3.3317 C   0  0  0  0  0  0  0  0  0  0  0  0
   56.0259  160.8502   -2.2317 C   0  0  0  0  0  0  0  0  0  0  0  0
   58.3236  161.4626   -0.5968 C   0  0  0  0  0  0  0  0  0  0  0  0
   58.7314  161.1569   -3.0935 C   0  0  0  0  0  0  0  0  0  0  0  0
   58.9635  161.7664    0.7549 C   0  0  0  0  0  0  0  0  0  0  0  0
   62.1010  163.8989   -5.6480 C   0  0  0  0  0  0  0  0  0  0  0  0
   59.7726  161.1582   -4.2090 C   0  0  0  0  0  0  0  0  0  0  0  0
   61.4571  162.5314   -5.4839 C   0  0  0  0  0  0  0  0  0  0  0  0
   60.4383  162.5252   -4.3445 C   0  0  0  0  0  0  0  0  0  0  0  0
   55.4606  157.9643   -5.4970 C   0  0  0  0  0  0  0  0  0  0  0  0
   55.2338  160.5327   -3.5089 C   0  0  1  0  0  0  0  0  0  0  0  0
   54.2163  158.5607   -4.8403 C   0  0  2  0  0  0  0  0  0  0  0  0
   54.5170  159.1783   -3.4661 C   0  0  1  0  0  0  0  0  0  0  0  0
   57.0162  159.7901   -1.9036 N   0  0  2  0  0  0  0  0  0  0  0  0
   56.6272  162.2102   -2.2634 N   0  0  1  0  0  0  0  0  0  0  0  0
   60.5520  161.6777   -1.5599 O   0  0  0  0  0  0  0  0  0  0  0  0
   56.2297  159.0201   -6.0647 O   0  0  0  0  0  0  0  0  0  0  0  0
   54.2631  161.5657   -3.6773 O   0  0  0  0  0  0  0  0  0  0  0  0
   53.2450  157.5244   -4.6844 O   0  0  0  0  0  0  0  0  0  0  0  0
   55.3574  158.2731   -2.7400 O   0  0  0  0  0  0  0  0  0  0  0  0
   58.4180  159.2871   -0.4057 H   0  0  0  0  0  0  0  0  0  0  0  0
   56.9372  159.9769    0.2093 H   0  0  0  0  0  0  0  0  0  0  0  0
   56.5130  162.6163   -0.1831 H   0  0  0  0  0  0  0  0  0  0  0  0
   57.7375  163.5221   -1.0356 H   0  0  0  0  0  0  0  0  0  0  0  0
   57.5905  159.4834   -3.9170 H   0  0  0  0  0  0  0  0  0  0  0  0
   58.7932  158.9955   -2.7384 H   0  0  0  0  0  0  0  0  0  0  0  0
   58.1116  163.2399   -3.3689 H   0  0  0  0  0  0  0  0  0  0  0  0
   57.1711  162.0944   -4.3052 H   0  0  0  0  0  0  0  0  0  0  0  0
   55.2609  160.8445   -1.4412 H   0  0  0  0  0  0  0  0  0  0  0  0
   58.2029  161.7600    1.5345 H   0  0  0  0  0  0  0  0  0  0  0  0
   59.4373  162.7467    0.7283 H   0  0  0  0  0  0  0  0  0  0  0  0
   59.7160  161.0135    0.9859 H   0  0  0  0  0  0  0  0  0  0  0  0
   61.3461  164.6671   -5.8439 H   0  0  0  0  0  0  0  0  0  0  0  0
   62.8020  163.8895   -6.4885 H   0  0  0  0  0  0  0  0  0  0  0  0
   62.6545  164.1826   -4.7472 H   0  0  0  0  0  0  0  0  0  0  0  0
   60.5245  160.3932   -3.9922 H   0  0  0  0  0  0  0  0  0  0  0  0
   59.2846  160.8825   -5.1489 H   0  0  0  0  0  0  0  0  0  0  0  0
   62.2382  161.7872   -5.2895 H   0  0  0  0  0  0  0  0  0  0  0  0
   60.9670  162.2498   -6.4232 H   0  0  0  0  0  0  0  0  0  0  0  0
   60.9374  162.7879   -3.4037 H   0  0  0  0  0  0  0  0  0  0  0  0
   59.6752  163.2909   -4.5297 H   0  0  0  0  0  0  0  0  0  0  0  0
   56.0843  157.4480   -4.7609 H   0  0  0  0  0  0  0  0  0  0  0  0
   55.1967  157.2753   -6.3056 H   0  0  0  0  0  0  0  0  0  0  0  0
   55.9039  160.5922   -4.3679 H   0  0  0  0  0  0  0  0  0  0  0  0
   53.7783  159.3136   -5.5050 H   0  0  0  0  0  0  0  0  0  0  0  0
   53.5850  159.2622   -2.8937 H   0  0  0  0  0  0  0  0  0  0  0  0
   57.0083  158.6082   -6.4711 H   0  0  0  0  0  0  0  0  0  0  0  0
   53.7007  161.5444   -2.8884 H   0  0  0  0  0  0  0  0  0  0  0  0
   53.0523  157.1952   -5.5748 H   0  0  0  0  0  0  0  0  0  0  0  0
   54.8893  157.4263   -2.7238 H   0  0  0  0  0  0  0  0  0  0  0  0
  1  7  1  0  0  0  0
  1  8  1  0  0  0  0
  1 20  2  0  0  0  0
  2  7  1  0  0  0  0
  2 18  1  0  0  0  0
  3  7  1  0  0  0  0
  3 19  1  0  0  0  0
  4  8  1  0  0  0  0
  4 18  1  0  0  0  0
  5  8  1  0  0  0  0
  5 19  1  0  0  0  0
  6 15  1  0  0  0  0
  6 18  1  0  0  0  0
  6 19  1  0  0  0  0
  7  9  1  0  0  0  0
  8 11  1  0  0  0  0
 10 12  1  0  0  0  0
 11 13  1  0  0  0  0
 12 13  1  0  0  0  0
 14 16  1  0  0  0  0
 14 21  1  0  0  0  0
 15 17  1  0  0  0  0
 15 22  1  0  0  0  0
 16 17  1  0  0  0  0
 16 23  1  0  0  0  0
 17 24  1  0  0  0  0
  2 25  1  0  0  0  0
  2 26  1  0  0  0  0
  3 27  1  0  0  0  0
  3 28  1  0  0  0  0
  4 29  1  0  0  0  0
  4 30  1  0  0  0  0
  5 31  1  0  0  0  0
  5 32  1  0  0  0  0
  6 33  1  0  0  0  0
  9 34  1  0  0  0  0
  9 35  1  0  0  0  0
  9 36  1  0  0  0  0
 10 37  1  0  0  0  0
 10 38  1  0  0  0  0
 10 39  1  0  0  0  0
 11 40  1  0  0  0  0
 11 41  1  0  0  0  0
 12 42  1  0  0  0  0
 12 43  1  0  0  0  0
 13 44  1  0  0  0  0
 13 45  1  0  0  0  0
 14 46  1  0  0  0  0
 14 47  1  0  0  0  0
 15 48  1  0  0  0  0
 16 49  1  0  0  0  0
 17 50  1  0  0  0  0
 21 51  1  0  0  0  0
 22 52  1  0  0  0  0
 23 53  1  0  0  0  0
 24 54  1  0  0  0  0
M  END
> <FRED Chemgauss4 score>
-8.155448

$$$$
C92783308	P145270525
  -OEChem-05122015073D

 37 39  0     1  0  0  0  0  0999 V2000
   62.1179  164.2406   -6.0556 C   0  0  0  0  0  0  0  0  0  0  0  0
   54.1435  158.1803   -5.2387 C   0  0  0  0  0  0  0  0  0  0  0  0
   60.5309  163.1907   -5.1270 C   0  0  0  0  0  0  0  0  0  0  0  0
   60.8662  162.4502   -6.2341 C   0  0  0  0  0  0  0  0  0  0  0  0
   55.3398  157.9369   -3.5456 C   0  0  0  0  0  0  0  0  0  0  0  0
   57.6761  161.0469   -3.9296 C   0  0  0  0  0  0  0  0  0  0  0  0
   59.4348  162.7883   -4.2172 C   0  0  0  0  0  0  0  0  0  0  0  0
   60.2397  161.1746   -6.6404 C   0  0  0  0  0  0  0  0  0  0  0  0
   59.0321  161.3162   -4.5011 C   0  0  2  0  0  0  0  0  0  0  0  0
   56.4815  157.7877   -2.5719 C   0  0  0  0  0  0  0  0  0  0  0  0
   56.4602  158.8106   -1.4283 C   0  0  0  0  0  0  0  0  0  0  0  0
   56.4983  160.2685   -1.8828 C   0  0  0  0  0  0  0  0  0  0  0  0
   61.3068  164.3088   -5.0177 N   0  0  0  0  0  0  0  0  0  0  0  0
   55.4482  158.1010   -4.8436 N   0  0  0  0  0  0  0  0  0  0  0  0
   54.0259  157.9207   -3.1945 N   0  0  0  0  0  0  0  0  0  0  0  0
   61.8888  163.1265   -6.8256 N   0  0  0  0  0  0  0  0  0  0  0  0
   53.2347  158.0757   -4.2669 N   0  0  0  0  0  0  0  0  0  0  0  0
   58.9436  161.0072   -5.9447 N   0  0  0  0  0  0  0  0  0  0  0  0
   57.6958  160.5885   -2.6261 N   0  0  0  0  0  0  0  0  0  0  0  0
   56.6809  161.2411   -4.6178 O   0  0  0  0  0  0  0  0  0  0  0  0
   62.8874  164.9566   -6.3072 H   0  0  0  0  0  0  0  0  0  0  0  0
   53.8624  158.3194   -6.2744 H   0  0  0  0  0  0  0  0  0  0  0  0
   59.7485  162.8918   -3.1723 H   0  0  0  0  0  0  0  0  0  0  0  0
   58.5816  163.4611   -4.3687 H   0  0  0  0  0  0  0  0  0  0  0  0
   60.0709  161.1472   -7.7220 H   0  0  0  0  0  0  0  0  0  0  0  0
   60.8965  160.3352   -6.3864 H   0  0  0  0  0  0  0  0  0  0  0  0
   59.7341  160.6293   -4.0236 H   0  0  0  0  0  0  0  0  0  0  0  0
   57.4399  157.8353   -3.1032 H   0  0  0  0  0  0  0  0  0  0  0  0
   56.4351  156.7773   -2.1449 H   0  0  0  0  0  0  0  0  0  0  0  0
   57.3257  158.6171   -0.7818 H   0  0  0  0  0  0  0  0  0  0  0  0
   55.5669  158.6593   -0.8103 H   0  0  0  0  0  0  0  0  0  0  0  0
   56.4802  160.9294   -1.0104 H   0  0  0  0  0  0  0  0  0  0  0  0
   55.6371  160.5185   -2.5092 H   0  0  0  0  0  0  0  0  0  0  0  0
   62.3876  162.8638   -7.6656 H   0  0  0  0  0  0  0  0  0  0  0  0
   52.2201  158.0908   -4.2101 H   0  0  0  0  0  0  0  0  0  0  0  0
   58.2657  161.6392   -6.3738 H   0  0  0  0  0  0  0  0  0  0  0  0
   58.5947  160.4708   -2.1686 H   0  0  0  0  0  0  0  0  0  0  0  0
  1 13  2  0  0  0  0
  1 16  1  0  0  0  0
  2 14  2  0  0  0  0
  2 17  1  0  0  0  0
  3  4  2  0  0  0  0
  3  7  1  0  0  0  0
  3 13  1  0  0  0  0
  4  8  1  0  0  0  0
  4 16  1  0  0  0  0
  5 10  1  0  0  0  0
  5 14  1  0  0  0  0
  5 15  2  0  0  0  0
  6  9  1  0  0  0  0
  6 19  1  0  0  0  0
  6 20  2  0  0  0  0
  7  9  1  0  0  0  0
  8 18  1  0  0  0  0
  9 18  1  0  0  0  0
 10 11  1  0  0  0  0
 11 12  1  0  0  0  0
 12 19  1  0  0  0  0
 15 17  1  0  0  0  0
  1 21  1  0  0  0  0
  2 22  1  0  0  0  0
  7 23  1  0  0  0  0
  7 24  1  0  0  0  0
  8 25  1  0  0  0  0
  8 26  1  0  0  0  0
  9 27  1  0  0  0  0
 10 28  1  0  0  0  0
 10 29  1  0  0  0  0
 11 30  1  0  0  0  0
 11 31  1  0  0  0  0
 12 32  1  0  0  0  0
 12 33  1  0  0  0  0
 16 34  1  0  0  0  0
 17 35  1  0  0  0  0
 18 36  1  0  0  0  0
 19 37  1  0  0  0  0
M  END
> <FRED Chemgauss4 score>
-8.146990

$$$$
C87395422	P136731529
  -OEChem-05122015073D

 25 26  0     1  0  0  0  0  0999 V2000
   57.1657  153.6231   -6.6757 C   0  0  0  0  0  0  0  0  0  0  0  0
   55.0690  157.8246   -2.4908 C   0  0  0  0  0  0  0  0  0  0  0  0
   57.5135  154.9575   -6.6503 C   0  0  0  0  0  0  0  0  0  0  0  0
   54.2926  157.5249   -4.4051 C   0  0  0  0  0  0  0  0  0  0  0  0
   55.3421  155.1785   -6.4353 C   0  0  0  0  0  0  0  0  0  0  0  0
   58.8851  155.4931   -6.7568 C   0  0  0  0  0  0  0  0  0  0  0  0
   53.9779  155.8108   -6.2789 C   0  0  0  0  0  0  0  0  0  0  0  0
   54.0406  157.3040   -5.8869 C   0  0  1  0  0  0  0  0  0  0  0  0
   55.4464  157.6502   -3.7915 N   0  0  0  0  0  0  0  0  0  0  0  0
   53.7542  157.8150   -2.2610 N   0  0  0  0  0  0  0  0  0  0  0  0
   56.4691  155.8508   -6.5130 N   0  0  0  0  0  0  0  0  0  0  0  0
   53.2808  157.6217   -3.5015 N   0  0  0  0  0  0  0  0  0  0  0  0
   52.8059  157.9756   -6.3148 N   0  0  0  0  0  0  0  0  0  0  0  0
   55.4647  153.4689   -6.5201 S   0  0  0  0  0  0  0  0  0  0  0  0
   57.8056  152.7575   -6.7740 H   0  0  0  0  0  0  0  0  0  0  0  0
   55.7742  157.9630   -1.6850 H   0  0  0  0  0  0  0  0  0  0  0  0
   59.1571  155.6818   -7.8081 H   0  0  0  0  0  0  0  0  0  0  0  0
   59.0029  156.4410   -6.2045 H   0  0  0  0  0  0  0  0  0  0  0  0
   59.6335  154.8001   -6.3359 H   0  0  0  0  0  0  0  0  0  0  0  0
   53.4367  155.2457   -5.5072 H   0  0  0  0  0  0  0  0  0  0  0  0
   53.3987  155.6705   -7.2012 H   0  0  0  0  0  0  0  0  0  0  0  0
   54.8562  157.7763   -6.4494 H   0  0  0  0  0  0  0  0  0  0  0  0
   52.2792  157.5685   -3.6463 H   0  0  0  0  0  0  0  0  0  0  0  0
   52.3745  157.6570   -7.1502 H   0  0  0  0  0  0  0  0  0  0  0  0
   52.5729  158.8343   -5.8742 H   0  0  0  0  0  0  0  0  0  0  0  0
  1  3  2  0  0  0  0
  1 14  1  0  0  0  0
  2  9  1  0  0  0  0
  2 10  2  0  0  0  0
  3  6  1  0  0  0  0
  3 11  1  0  0  0  0
  4  8  1  0  0  0  0
  4  9  2  0  0  0  0
  4 12  1  0  0  0  0
  5  7  1  0  0  0  0
  5 11  2  0  0  0  0
  5 14  1  0  0  0  0
  7  8  1  0  0  0  0
  8 13  1  0  0  0  0
 10 12  1  0  0  0  0
  1 15  1  0  0  0  0
  2 16  1  0  0  0  0
  6 17  1  0  0  0  0
  6 18  1  0  0  0  0
  6 19  1  0  0  0  0
  7 20  1  0  0  0  0
  7 21  1  0  0  0  0
  8 22  1  0  0  0  0
 12 23  1  0  0  0  0
 13 24  1  0  0  0  0
 13 25  1  0  0  0  0
M  END
> <FRED Chemgauss4 score>
-8.135157

$$$$
C90953253	P142274861
  -OEChem-05122015073D

 31 32  0     1  0  0  0  0  0999 V2000
   56.3558  158.4719   -3.7671 C   0  0  0  0  0  0  0  0  0  0  0  0
   55.2366  158.8471   -3.0538 C   0  0  0  0  0  0  0  0  0  0  0  0
   54.1311  163.2339   -3.5521 C   0  0  0  0  0  0  0  0  0  0  0  0
   54.7563  156.7249   -3.3288 C   0  0  0  0  0  0  0  0  0  0  0  0
   55.0003  160.1828   -2.5833 C   0  0  0  0  0  0  0  0  0  0  0  0
   56.6477  163.4210   -3.3969 C   0  0  0  0  0  0  0  0  0  0  0  0
   54.0293  155.4131   -3.2596 C   0  0  0  0  0  0  0  0  0  0  0  0
   53.3450  155.0178   -4.5643 C   0  0  0  0  0  0  0  0  0  0  0  0
   55.4018  162.6407   -2.9827 C   0  0  2  0  0  0  0  0  0  0  0  0
   53.7298  164.4943   -3.2998 N   0  5  0  0  0  0  0  0  0  0  0  0
   54.3181  157.8467   -2.8019 N   0  0  0  0  0  0  0  0  0  0  0  0
   53.2966  162.5506   -4.3582 N   0  0  0  0  0  0  0  0  0  0  0  0
   52.5689  164.6080   -3.9925 N   0  0  0  0  0  0  0  0  0  0  0  0
   52.3085  163.4403   -4.6283 N   0  0  0  0  0  0  0  0  0  0  0  0
   55.5341  161.2458   -3.3371 N   0  0  0  0  0  0  0  0  0  0  0  0
   52.3015  156.0101   -4.9218 N   0  3  0  0  0  0  0  0  0  0  0  0
   54.3592  160.3960   -1.5276 O   0  0  0  0  0  0  0  0  0  0  0  0
   56.2660  156.8006   -4.1412 S   0  0  0  0  0  0  0  0  0  0  0  0
   57.1973  159.0750   -4.0778 H   0  0  0  0  0  0  0  0  0  0  0  0
   56.7574  163.4396   -4.4868 H   0  0  0  0  0  0  0  0  0  0  0  0
   56.5869  164.4567   -3.0442 H   0  0  0  0  0  0  0  0  0  0  0  0
   57.5614  162.9898   -2.9727 H   0  0  0  0  0  0  0  0  0  0  0  0
   54.7503  154.6280   -2.9957 H   0  0  0  0  0  0  0  0  0  0  0  0
   53.2955  155.4264   -2.4432 H   0  0  0  0  0  0  0  0  0  0  0  0
   52.8323  154.0572   -4.4580 H   0  0  0  0  0  0  0  0  0  0  0  0
   54.0386  154.9668   -5.4090 H   0  0  0  0  0  0  0  0  0  0  0  0
   55.3470  162.6576   -1.8873 H   0  0  0  0  0  0  0  0  0  0  0  0
   56.1004  161.0279   -4.1505 H   0  0  0  0  0  0  0  0  0  0  0  0
   52.3024  156.1961   -5.9303 H   0  0  0  0  0  0  0  0  0  0  0  0
   52.4601  156.8994   -4.4361 H   0  0  0  0  0  0  0  0  0  0  0  0
   51.3688  155.6706   -4.6636 H   0  0  0  0  0  0  0  0  0  0  0  0
  1  2  2  0  0  0  0
  1 18  1  0  0  0  0
  2  5  1  0  0  0  0
  2 11  1  0  0  0  0
  3  9  1  0  0  0  0
  3 10  1  0  0  0  0
  3 12  2  0  0  0  0
  4  7  1  0  0  0  0
  4 11  2  0  0  0  0
  4 18  1  0  0  0  0
  5 15  1  0  0  0  0
  5 17  2  0  0  0  0
  6  9  1  0  0  0  0
  7  8  1  0  0  0  0
  8 16  1  0  0  0  0
  9 15  1  0  0  0  0
 10 13  1  0  0  0  0
 12 14  1  0  0  0  0
 13 14  2  0  0  0  0
  1 19  1  0  0  0  0
  6 20  1  0  0  0  0
  6 21  1  0  0  0  0
  6 22  1  0  0  0  0
  7 23  1  0  0  0  0
  7 24  1  0  0  0  0
  8 25  1  0  0  0  0
  8 26  1  0  0  0  0
  9 27  1  0  0  0  0
 15 28  1  0  0  0  0
 16 29  1  0  0  0  0
 16 30  1  0  0  0  0
 16 31  1  0  0  0  0
M  CHG  2  10  -1  16   1
M  END
> <FRED Chemgauss4 score>
-8.127090

$$$$
L-Threonine	P10000027
  -OEChem-05122015073D

 17 16  0     1  0  0  0  0  0999 V2000
   54.1128  155.9981   -3.0818 C   0  0  0  0  0  0  0  0  0  0  0  0
   55.6706  155.0951   -5.6616 C   0  0  0  0  0  0  0  0  0  0  0  0
   53.5257  155.1935   -4.2593 C   0  0  2  0  0  0  0  0  0  0  0  0
   54.1868  155.4489   -5.6229 C   0  0  2  0  0  0  0  0  0  0  0  0
   52.0475  155.3919   -4.4034 N   0  3  0  0  0  0  0  0  0  0  0  0
   54.0583  157.2554   -3.1735 O   0  5  0  0  0  0  0  0  0  0  0  0
   54.5738  155.2874   -2.1414 O   0  0  0  0  0  0  0  0  0  0  0  0
   53.5067  154.6943   -6.6255 O   0  0  0  0  0  0  0  0  0  0  0  0
   55.8367  154.0440   -5.4078 H   0  0  0  0  0  0  0  0  0  0  0  0
   56.2563  155.7251   -4.9846 H   0  0  0  0  0  0  0  0  0  0  0  0
   56.0726  155.2736   -6.6653 H   0  0  0  0  0  0  0  0  0  0  0  0
   53.6502  154.1357   -3.9949 H   0  0  0  0  0  0  0  0  0  0  0  0
   54.0812  156.5086   -5.8842 H   0  0  0  0  0  0  0  0  0  0  0  0
   51.5491  154.5512   -4.1101 H   0  0  0  0  0  0  0  0  0  0  0  0
   51.8126  155.5899   -5.3766 H   0  0  0  0  0  0  0  0  0  0  0  0
   51.7393  156.1745   -3.8255 H   0  0  0  0  0  0  0  0  0  0  0  0
   53.9052  154.9429   -7.4732 H   0  0  0  0  0  0  0  0  0  0  0  0
  1  3  1  0  0  0  0
  1  6  1  0  0  0  0
  1  7  2  0  0  0  0
  2  4  1  0  0  0  0
  3  4  1  0  0  0  0
  3  5  1  0  0  0  0
  4  8  1  0  0  0  0
  2  9  1  0  0  0  0
  2 10  1  0  0  0  0
  2 11  1  0  0  0  0
  3 12  1  0  0  0  0
  4 13  1  0  0  0  0
  5 14  1  0  0  0  0
  5 15  1  0  0  0  0
  5 16  1  0  0  0  0
  8 17  1  0  0  0  0
M  CHG  2   5   1   6  -1
M  END
> <FRED Chemgauss4 score>
-8.123182

$$$$
C39421458	P59746003
  -OEChem-05122015073D

 45 47  0     1  0  0  0  0  0999 V2000
   57.2127  159.9072   -0.0586 C   0  0  0  0  0  0  0  0  0  0  0  0
   58.0161  162.1774    0.1363 C   0  0  0  0  0  0  0  0  0  0  0  0
   56.9798  159.8716    1.3162 C   0  0  0  0  0  0  0  0  0  0  0  0
   57.7831  162.1418    1.5111 C   0  0  0  0  0  0  0  0  0  0  0  0
   57.7309  161.0601   -0.6486 C   0  0  0  0  0  0  0  0  0  0  0  0
   57.2650  160.9889    2.1011 C   0  0  0  0  0  0  0  0  0  0  0  0
   57.8899  160.7106   -4.2862 C   0  0  0  0  0  0  0  0  0  0  0  0
   57.9728  161.0975   -2.0781 C   0  0  0  0  0  0  0  0  0  0  0  0
   53.9159  156.2085   -3.5564 C   0  0  0  0  0  0  0  0  0  0  0  0
   55.2202  156.1613   -6.2231 C   0  0  0  0  0  0  0  0  0  0  0  0
   55.4234  157.3140   -5.2408 C   0  0  0  0  0  0  0  0  0  0  0  0
   54.1489  155.1639   -5.8049 C   0  0  0  0  0  0  0  0  0  0  0  0
   57.1519  160.3016   -3.0559 C   0  0  1  0  0  0  0  0  0  0  0  0
   54.2533  157.5209   -4.2749 C   0  0  2  0  0  0  0  0  0  0  0  0
   53.6511  153.7598   -3.8184 C   0  0  0  0  0  0  0  0  0  0  0  0
   55.7254  160.7308   -3.1150 C   0  0  0  0  0  0  0  0  0  0  0  0
   54.6119  158.6094   -3.2586 C   0  0  0  0  0  0  0  0  0  0  0  0
   58.8423  161.5538   -4.0643 N   0  0  0  0  0  0  0  0  0  0  0  0
   58.8935  161.8060   -2.6624 N   0  0  0  0  0  0  0  0  0  0  0  0
   53.9795  155.0690   -4.3617 N   0  0  0  0  0  0  0  0  0  0  0  0
   54.9301  159.8145   -3.9436 N   0  0  0  0  0  0  0  0  0  0  0  0
   53.6069  156.1917   -2.3638 O   0  0  0  0  0  0  0  0  0  0  0  0
   53.0930  157.9806   -4.9538 O   0  0  0  0  0  0  0  0  0  0  0  0
   56.9763  160.9454    3.7968 Cl  0  0  0  0  0  0  0  0  0  0  0  0
   56.9874  159.0307   -0.6606 H   0  0  0  0  0  0  0  0  0  0  0  0
   58.4198  163.0811   -0.3129 H   0  0  0  0  0  0  0  0  0  0  0  0
   56.5751  158.9669    1.7627 H   0  0  0  0  0  0  0  0  0  0  0  0
   58.0104  163.0200    2.1100 H   0  0  0  0  0  0  0  0  0  0  0  0
   57.6258  160.3156   -5.2764 H   0  0  0  0  0  0  0  0  0  0  0  0
   54.9682  156.5711   -7.2300 H   0  0  0  0  0  0  0  0  0  0  0  0
   56.1864  155.6268   -6.3847 H   0  0  0  0  0  0  0  0  0  0  0  0
   56.3647  157.1610   -4.6745 H   0  0  0  0  0  0  0  0  0  0  0  0
   55.6038  158.2491   -5.8117 H   0  0  0  0  0  0  0  0  0  0  0  0
   53.1846  155.4623   -6.2220 H   0  0  0  0  0  0  0  0  0  0  0  0
   54.4052  154.1786   -6.1981 H   0  0  0  0  0  0  0  0  0  0  0  0
   57.2620  159.2272   -2.8899 H   0  0  0  0  0  0  0  0  0  0  0  0
   52.5847  153.5566   -3.9465 H   0  0  0  0  0  0  0  0  0  0  0  0
   53.8909  153.7220   -2.7523 H   0  0  0  0  0  0  0  0  0  0  0  0
   54.2218  152.9826   -4.3337 H   0  0  0  0  0  0  0  0  0  0  0  0
   55.6437  161.7311   -3.5507 H   0  0  0  0  0  0  0  0  0  0  0  0
   55.2827  160.7448   -2.1147 H   0  0  0  0  0  0  0  0  0  0  0  0
   55.4690  158.2777   -2.6912 H   0  0  0  0  0  0  0  0  0  0  0  0
   53.7622  158.7733   -2.6129 H   0  0  0  0  0  0  0  0  0  0  0  0
   54.0743  160.3151   -4.2285 H   0  0  0  0  0  0  0  0  0  0  0  0
   52.4132  158.1152   -4.2760 H   0  0  0  0  0  0  0  0  0  0  0  0
  1  3  2  0  0  0  0
  1  5  1  0  0  0  0
  2  4  1  0  0  0  0
  2  5  2  0  0  0  0
  3  6  1  0  0  0  0
  4  6  2  0  0  0  0
  5  8  1  0  0  0  0
  6 24  1  0  0  0  0
  7 13  1  0  0  0  0
  7 18  2  0  0  0  0
  8 13  1  0  0  0  0
  8 19  2  0  0  0  0
  9 14  1  0  0  0  0
  9 20  1  0  0  0  0
  9 22  2  0  0  0  0
 10 11  1  0  0  0  0
 10 12  1  0  0  0  0
 11 14  1  0  0  0  0
 12 20  1  0  0  0  0
 13 16  1  0  0  0  0
 14 17  1  0  0  0  0
 14 23  1  0  0  0  0
 15 20  1  0  0  0  0
 16 21  1  0  0  0  0
 17 21  1  0  0  0  0
 18 19  1  0  0  0  0
  1 25  1  0  0  0  0
  2 26  1  0  0  0  0
  3 27  1  0  0  0  0
  4 28  1  0  0  0  0
  7 29  1  0  0  0  0
 10 30  1  0  0  0  0
 10 31  1  0  0  0  0
 11 32  1  0  0  0  0
 11 33  1  0  0  0  0
 12 34  1  0  0  0  0
 12 35  1  0  0  0  0
 13 36  1  0  0  0  0
 15 37  1  0  0  0  0
 15 38  1  0  0  0  0
 15 39  1  0  0  0  0
 16 40  1  0  0  0  0
 16 41  1  0  0  0  0
 17 42  1  0  0  0  0
 17 43  1  0  0  0  0
 21 44  1  0  0  0  0
 23 45  1  0  0  0  0
M  END
> <FRED Chemgauss4 score>
-8.112127

$$$$
C45088381	P67962157
  -OEChem-05122015073D

 41 42  0     1  0  0  0  0  0999 V2000
   55.4452  158.2897   -1.8283 C   0  0  0  0  0  0  0  0  0  0  0  0
   53.6318  156.1465   -3.4273 C   0  0  0  0  0  0  0  0  0  0  0  0
   58.2560  161.3069    1.5797 C   0  0  0  0  0  0  0  0  0  0  0  0
   57.5285  160.0003    1.9016 C   0  0  0  0  0  0  0  0  0  0  0  0
   58.2691  159.9612   -3.5695 C   0  0  0  0  0  0  0  0  0  0  0  0
   57.9036  161.6435    0.1340 C   0  0  0  0  0  0  0  0  0  0  0  0
   56.7587  159.6237    0.6400 C   0  0  0  0  0  0  0  0  0  0  0  0
   57.5516  161.1145   -2.8780 C   0  0  0  0  0  0  0  0  0  0  0  0
   57.2347  158.8465   -3.5374 C   0  0  0  0  0  0  0  0  0  0  0  0
   57.5417  160.2961   -0.4832 C   0  0  0  0  0  0  0  0  0  0  0  0
   56.7502  160.4216   -1.7731 C   0  0  2  0  0  0  0  0  0  0  0  0
   55.6221  156.8139   -2.0829 C   0  0  0  0  0  0  0  0  0  0  0  0
   53.2248  155.9061   -4.8586 C   0  0  0  0  0  0  0  0  0  0  0  0
   56.4395  159.1076   -2.3403 N   0  0  0  0  0  0  0  0  0  0  0  0
   51.8078  155.5174   -4.9098 N   0  0  0  0  0  0  0  0  0  0  0  0
   54.9717  156.5214   -3.3240 N   0  0  0  0  0  0  0  0  0  0  0  0
   54.4685  158.6991   -1.1986 O   0  0  0  0  0  0  0  0  0  0  0  0
   52.8636  156.0253   -2.4768 O   0  0  0  0  0  0  0  0  0  0  0  0
   57.9625  162.1140    2.2587 H   0  0  0  0  0  0  0  0  0  0  0  0
   59.3378  161.1653    1.6867 H   0  0  0  0  0  0  0  0  0  0  0  0
   58.2592  159.2217    2.1493 H   0  0  0  0  0  0  0  0  0  0  0  0
   56.8591  160.1069    2.7609 H   0  0  0  0  0  0  0  0  0  0  0  0
   58.5900  160.2062   -4.5857 H   0  0  0  0  0  0  0  0  0  0  0  0
   59.1556  159.6720   -2.9931 H   0  0  0  0  0  0  0  0  0  0  0  0
   57.0452  162.3262    0.1126 H   0  0  0  0  0  0  0  0  0  0  0  0
   58.7330  162.1315   -0.3872 H   0  0  0  0  0  0  0  0  0  0  0  0
   56.6901  158.5393    0.5101 H   0  0  0  0  0  0  0  0  0  0  0  0
   55.7376  160.0209    0.6971 H   0  0  0  0  0  0  0  0  0  0  0  0
   58.2382  161.8811   -2.5073 H   0  0  0  0  0  0  0  0  0  0  0  0
   56.8645  161.5902   -3.5891 H   0  0  0  0  0  0  0  0  0  0  0  0
   56.5657  158.8990   -4.4032 H   0  0  0  0  0  0  0  0  0  0  0  0
   57.6886  157.8527   -3.4958 H   0  0  0  0  0  0  0  0  0  0  0  0
   58.4616  159.7266   -0.6748 H   0  0  0  0  0  0  0  0  0  0  0  0
   55.8169  160.9583   -1.5679 H   0  0  0  0  0  0  0  0  0  0  0  0
   55.1648  156.2712   -1.2610 H   0  0  0  0  0  0  0  0  0  0  0  0
   56.6863  156.6044   -2.1366 H   0  0  0  0  0  0  0  0  0  0  0  0
   53.3685  156.8209   -5.4412 H   0  0  0  0  0  0  0  0  0  0  0  0
   53.8329  155.1043   -5.2875 H   0  0  0  0  0  0  0  0  0  0  0  0
   51.5022  154.9984   -5.6985 H   0  0  0  0  0  0  0  0  0  0  0  0
   51.1879  155.9566   -4.2713 H   0  0  0  0  0  0  0  0  0  0  0  0
   55.5204  156.5911   -4.1839 H   0  0  0  0  0  0  0  0  0  0  0  0
  1 12  1  0  0  0  0
  1 14  1  0  0  0  0
  1 17  2  0  0  0  0
  2 13  1  0  0  0  0
  2 16  1  0  0  0  0
  2 18  2  0  0  0  0
  3  4  1  0  0  0  0
  3  6  1  0  0  0  0
  4  7  1  0  0  0  0
  5  8  1  0  0  0  0
  5  9  1  0  0  0  0
  6 10  1  0  0  0  0
  7 10  1  0  0  0  0
  8 11  1  0  0  0  0
  9 14  1  0  0  0  0
 10 11  1  0  0  0  0
 11 14  1  0  0  0  0
 12 16  1  0  0  0  0
 13 15  1  0  0  0  0
  3 19  1  0  0  0  0
  3 20  1  0  0  0  0
  4 21  1  0  0  0  0
  4 22  1  0  0  0  0
  5 23  1  0  0  0  0
  5 24  1  0  0  0  0
  6 25  1  0  0  0  0
  6 26  1  0  0  0  0
  7 27  1  0  0  0  0
  7 28  1  0  0  0  0
  8 29  1  0  0  0  0
  8 30  1  0  0  0  0
  9 31  1  0  0  0  0
  9 32  1  0  0  0  0
 10 33  1  0  0  0  0
 11 34  1  0  0  0  0
 12 35  1  0  0  0  0
 12 36  1  0  0  0  0
 13 37  1  0  0  0  0
 13 38  1  0  0  0  0
 15 39  1  0  0  0  0
 15 40  1  0  0  0  0
 16 41  1  0  0  0  0
M  END
> <FRED Chemgauss4 score>
-8.091975

$$$$
C61594533	P94310181
  -OEChem-05122015073D

 32 34  0     1  0  0  0  0  0999 V2000
   58.9687  155.2555   -6.2676 C   0  0  0  0  0  0  0  0  0  0  0  0
   60.0412  154.6349   -6.8694 C   0  0  0  0  0  0  0  0  0  0  0  0
   57.9639  153.3429   -7.1246 C   0  0  0  0  0  0  0  0  0  0  0  0
   57.7653  154.5071   -6.4153 C   0  0  0  0  0  0  0  0  0  0  0  0
   54.8338  157.0463   -5.2604 C   0  0  0  0  0  0  0  0  0  0  0  0
   54.0173  157.8721   -3.4219 C   0  0  0  0  0  0  0  0  0  0  0  0
   57.1045  159.3797   -4.1194 C   0  0  0  0  0  0  0  0  0  0  0  0
   56.6787  159.2030   -2.6922 C   0  0  0  0  0  0  0  0  0  0  0  0
   56.4966  158.0779   -3.6738 C   0  0  0  0  0  0  0  0  0  0  0  0
   55.2528  153.9885   -6.1531 C   0  0  0  0  0  0  0  0  0  0  0  0
   56.4237  154.9434   -5.8570 C   0  0  2  0  0  0  0  0  0  0  0  0
   53.5620  156.8122   -5.3838 N   0  0  0  0  0  0  0  0  0  0  0  0
   53.0212  157.3213   -4.2405 N   0  0  0  0  0  0  0  0  0  0  0  0
   55.1973  157.6790   -4.1139 N   0  0  0  0  0  0  0  0  0  0  0  0
   55.4837  152.6661   -5.5721 N   0  0  0  0  0  0  0  0  0  0  0  0
   53.8494  158.4034   -2.3337 O   0  0  0  0  0  0  0  0  0  0  0  0
   59.5957  153.1559   -7.6087 S   0  0  0  0  0  0  0  0  0  0  0  0
   56.0063  156.5988   -6.4509 S   0  0  0  0  0  0  0  0  0  0  0  0
   59.0481  156.2018   -5.7475 H   0  0  0  0  0  0  0  0  0  0  0  0
   61.0648  154.9794   -6.9109 H   0  0  0  0  0  0  0  0  0  0  0  0
   57.2315  152.5912   -7.3848 H   0  0  0  0  0  0  0  0  0  0  0  0
   56.5134  160.0389   -4.7432 H   0  0  0  0  0  0  0  0  0  0  0  0
   58.1666  159.3937   -4.3310 H   0  0  0  0  0  0  0  0  0  0  0  0
   57.4540  159.0980   -1.9434 H   0  0  0  0  0  0  0  0  0  0  0  0
   55.8017  159.7437   -2.3581 H   0  0  0  0  0  0  0  0  0  0  0  0
   57.1715  157.2343   -3.5772 H   0  0  0  0  0  0  0  0  0  0  0  0
   54.3290  154.3832   -5.7134 H   0  0  0  0  0  0  0  0  0  0  0  0
   55.0765  153.8783   -7.2292 H   0  0  0  0  0  0  0  0  0  0  0  0
   56.5078  155.0381   -4.7667 H   0  0  0  0  0  0  0  0  0  0  0  0
   52.0242  157.2713   -4.0738 H   0  0  0  0  0  0  0  0  0  0  0  0
   55.0088  151.8895   -5.9761 H   0  0  0  0  0  0  0  0  0  0  0  0
   55.9346  152.6182   -4.6854 H   0  0  0  0  0  0  0  0  0  0  0  0
  1  2  2  0  0  0  0
  1  4  1  0  0  0  0
  2 17  1  0  0  0  0
  3  4  2  0  0  0  0
  3 17  1  0  0  0  0
  4 11  1  0  0  0  0
  5 12  2  0  0  0  0
  5 14  1  0  0  0  0
  5 18  1  0  0  0  0
  6 13  1  0  0  0  0
  6 14  1  0  0  0  0
  6 16  2  0  0  0  0
  7  8  1  0  0  0  0
  7  9  1  0  0  0  0
  8  9  1  0  0  0  0
  9 14  1  0  0  0  0
 10 11  1  0  0  0  0
 10 15  1  0  0  0  0
 11 18  1  0  0  0  0
 12 13  1  0  0  0  0
  1 19  1  0  0  0  0
  2 20  1  0  0  0  0
  3 21  1  0  0  0  0
  7 22  1  0  0  0  0
  7 23  1  0  0  0  0
  8 24  1  0  0  0  0
  8 25  1  0  0  0  0
  9 26  1  0  0  0  0
 10 27  1  0  0  0  0
 10 28  1  0  0  0  0
 11 29  1  0  0  0  0
 13 30  1  0  0  0  0
 15 31  1  0  0  0  0
 15 32  1  0  0  0  0
M  END
> <FRED Chemgauss4 score>
-8.078150

$$$$
C67725038	P103995721
  -OEChem-05122015073D

 47 48  0     1  0  0  0  0  0999 V2000
   55.3582  153.9938   -6.9364 C   0  0  0  0  0  0  0  0  0  0  0  0
   56.6382  154.5636   -6.7992 C   0  0  0  0  0  0  0  0  0  0  0  0
   55.5774  152.8139   -7.6045 C   0  0  0  0  0  0  0  0  0  0  0  0
   56.9848  155.8384   -6.1544 C   0  0  0  0  0  0  0  0  0  0  0  0
   57.1828  158.3241   -4.1766 C   0  0  0  0  0  0  0  0  0  0  0  0
   54.8208  157.7092   -3.8268 C   0  0  0  0  0  0  0  0  0  0  0  0
   55.4224  155.4230   -4.1821 C   0  0  0  0  0  0  0  0  0  0  0  0
   55.9722  157.6800   -4.8260 C   0  0  2  0  0  0  0  0  0  0  0  0
   54.9652  156.3777   -3.0858 C   0  0  2  0  0  0  0  0  0  0  0  0
   53.6232  152.2481   -9.0926 C   0  0  0  0  0  0  0  0  0  0  0  0
   53.9178  151.0559   -6.8910 C   0  0  0  0  0  0  0  0  0  0  0  0
   57.8718  161.9040   -3.6720 C   0  0  0  0  0  0  0  0  0  0  0  0
   59.5397  160.4553   -4.8825 C   0  0  0  0  0  0  0  0  0  0  0  0
   54.6611  151.7542   -8.0556 C   0  0  0  0  0  0  0  0  0  0  0  0
   58.3777  160.4871   -3.9005 C   0  0  0  0  0  0  0  0  0  0  0  0
   57.5994  153.8078   -7.3368 N   0  0  0  0  0  0  0  0  0  0  0  0
   56.9230  152.7509   -7.8182 N   0  0  0  0  0  0  0  0  0  0  0  0
   56.1781  156.2645   -5.1093 N   0  0  0  0  0  0  0  0  0  0  0  0
   53.7546  155.9529   -2.4457 N   0  0  0  0  0  0  0  0  0  0  0  0
   57.3002  159.6785   -4.4241 N   0  0  0  0  0  0  0  0  0  0  0  0
   57.9741  156.4330   -6.5774 O   0  0  0  0  0  0  0  0  0  0  0  0
   57.9442  157.6384   -3.5043 O   0  0  0  0  0  0  0  0  0  0  0  0
   54.4082  154.3828   -6.5989 H   0  0  0  0  0  0  0  0  0  0  0  0
   54.9254  158.5319   -3.1110 H   0  0  0  0  0  0  0  0  0  0  0  0
   53.8519  157.8306   -4.3176 H   0  0  0  0  0  0  0  0  0  0  0  0
   56.1207  154.6770   -3.7822 H   0  0  0  0  0  0  0  0  0  0  0  0
   54.5990  154.8957   -4.6766 H   0  0  0  0  0  0  0  0  0  0  0  0
   55.7240  158.2185   -5.7603 H   0  0  0  0  0  0  0  0  0  0  0  0
   55.7686  156.4641   -2.2985 H   0  0  0  0  0  0  0  0  0  0  0  0
   53.0094  153.0592   -8.6860 H   0  0  0  0  0  0  0  0  0  0  0  0
   52.9469  151.4480   -9.4126 H   0  0  0  0  0  0  0  0  0  0  0  0
   54.1348  152.6307   -9.9829 H   0  0  0  0  0  0  0  0  0  0  0  0
   53.3346  151.7900   -6.3239 H   0  0  0  0  0  0  0  0  0  0  0  0
   54.6083  150.5668   -6.1953 H   0  0  0  0  0  0  0  0  0  0  0  0
   53.2244  150.2931   -7.2618 H   0  0  0  0  0  0  0  0  0  0  0  0
   57.5493  162.3596   -4.6139 H   0  0  0  0  0  0  0  0  0  0  0  0
   57.0242  161.9190   -2.9777 H   0  0  0  0  0  0  0  0  0  0  0  0
   58.6594  162.5334   -3.2432 H   0  0  0  0  0  0  0  0  0  0  0  0
   59.2458  160.8863   -5.8458 H   0  0  0  0  0  0  0  0  0  0  0  0
   59.8733  159.4274   -5.0587 H   0  0  0  0  0  0  0  0  0  0  0  0
   60.3939  161.0323   -4.5109 H   0  0  0  0  0  0  0  0  0  0  0  0
   55.2209  150.9410   -8.5707 H   0  0  0  0  0  0  0  0  0  0  0  0
   58.6944  160.0519   -2.9464 H   0  0  0  0  0  0  0  0  0  0  0  0
   57.4464  152.0198   -8.2837 H   0  0  0  0  0  0  0  0  0  0  0  0
   53.1876  156.6472   -2.0123 H   0  0  0  0  0  0  0  0  0  0  0  0
   53.6310  154.9785   -2.2817 H   0  0  0  0  0  0  0  0  0  0  0  0
   56.5956  160.1272   -5.0016 H   0  0  0  0  0  0  0  0  0  0  0  0
  1  2  1  0  0  0  0
  1  3  2  0  0  0  0
  2  4  1  0  0  0  0
  2 16  2  0  0  0  0
  3 14  1  0  0  0  0
  3 17  1  0  0  0  0
  4 18  1  0  0  0  0
  4 21  2  0  0  0  0
  5  8  1  0  0  0  0
  5 20  1  0  0  0  0
  5 22  2  0  0  0  0
  6  8  1  0  0  0  0
  6  9  1  0  0  0  0
  7  9  1  0  0  0  0
  7 18  1  0  0  0  0
  8 18  1  0  0  0  0
  9 19  1  0  0  0  0
 10 14  1  0  0  0  0
 11 14  1  0  0  0  0
 12 15  1  0  0  0  0
 13 15  1  0  0  0  0
 15 20  1  0  0  0  0
 16 17  1  0  0  0  0
  1 23  1  0  0  0  0
  6 24  1  0  0  0  0
  6 25  1  0  0  0  0
  7 26  1  0  0  0  0
  7 27  1  0  0  0  0
  8 28  1  0  0  0  0
  9 29  1  0  0  0  0
 10 30  1  0  0  0  0
 10 31  1  0  0  0  0
 10 32  1  0  0  0  0
 11 33  1  0  0  0  0
 11 34  1  0  0  0  0
 11 35  1  0  0  0  0
 12 36  1  0  0  0  0
 12 37  1  0  0  0  0
 12 38  1  0  0  0  0
 13 39  1  0  0  0  0
 13 40  1  0  0  0  0
 13 41  1  0  0  0  0
 14 42  1  0  0  0  0
 15 43  1  0  0  0  0
 17 44  1  0  0  0  0
 19 45  1  0  0  0  0
 19 46  1  0  0  0  0
 20 47  1  0  0  0  0
M  END
> <FRED Chemgauss4 score>
-8.063532

$$$$
C06759849	P10673122
  -OEChem-05122015073D

 42 44  0     1  0  0  0  0  0999 V2000
   60.3434  161.5073   -6.9864 C   0  0  0  0  0  0  0  0  0  0  0  0
   60.1308  161.4704   -4.5800 C   0  0  0  0  0  0  0  0  0  0  0  0
   61.0738  162.6927   -6.9037 C   0  0  0  0  0  0  0  0  0  0  0  0
   60.8612  162.6558   -4.4973 C   0  0  0  0  0  0  0  0  0  0  0  0
   59.8718  160.8961   -5.8245 C   0  0  0  0  0  0  0  0  0  0  0  0
   61.3327  163.2670   -5.6592 C   0  0  0  0  0  0  0  0  0  0  0  0
   53.3945  155.9389   -3.2811 C   0  0  0  0  0  0  0  0  0  0  0  0
   54.1874  159.1077   -3.4441 C   0  0  0  0  0  0  0  0  0  0  0  0
   56.8247  159.9743   -4.9441 C   0  0  0  0  0  0  0  0  0  0  0  0
   54.8858  156.0114   -3.4952 C   0  0  0  0  0  0  0  0  0  0  0  0
   55.0352  157.0834   -4.5737 C   0  0  0  0  0  0  0  0  0  0  0  0
   55.2084  161.5490   -6.0408 C   0  0  0  0  0  0  0  0  0  0  0  0
   54.4670  161.6153   -3.5044 C   0  0  0  0  0  0  0  0  0  0  0  0
   53.8261  157.9809   -4.3801 C   0  0  1  0  0  0  0  0  0  0  0  0
   55.3890  160.2313   -5.3049 C   0  0  2  0  0  0  0  0  0  0  0  0
   59.0869  159.6193   -5.9129 C   0  0  0  0  0  0  0  0  0  0  0  0
   52.8424  157.0962   -3.8177 N   0  0  0  0  0  0  0  0  0  0  0  0
   54.6448  160.2743   -4.0500 N   0  0  0  0  0  0  0  0  0  0  0  0
   57.6676  159.8641   -6.0335 N   0  0  0  0  0  0  0  0  0  0  0  0
   52.8065  155.0367   -2.7050 O   0  0  0  0  0  0  0  0  0  0  0  0
   54.0710  158.9599   -2.2260 O   0  0  0  0  0  0  0  0  0  0  0  0
   57.1444  159.8843   -3.7645 O   0  0  0  0  0  0  0  0  0  0  0  0
   55.0428  162.7992   -4.7418 S   0  0  0  0  0  0  0  0  0  0  0  0
   62.2340  164.7292   -5.5575 Cl  0  0  0  0  0  0  0  0  0  0  0  0
   60.1456  161.0661   -7.9597 H   0  0  0  0  0  0  0  0  0  0  0  0
   59.7671  161.0004   -3.6700 H   0  0  0  0  0  0  0  0  0  0  0  0
   61.4351  163.1573   -7.8175 H   0  0  0  0  0  0  0  0  0  0  0  0
   61.0553  163.0918   -3.5207 H   0  0  0  0  0  0  0  0  0  0  0  0
   55.3636  156.3137   -2.5582 H   0  0  0  0  0  0  0  0  0  0  0  0
   55.2821  155.0476   -3.8240 H   0  0  0  0  0  0  0  0  0  0  0  0
   55.9936  157.6058   -4.5075 H   0  0  0  0  0  0  0  0  0  0  0  0
   54.9744  156.6095   -5.5609 H   0  0  0  0  0  0  0  0  0  0  0  0
   56.0398  161.7874   -6.7104 H   0  0  0  0  0  0  0  0  0  0  0  0
   54.2792  161.5419   -6.6196 H   0  0  0  0  0  0  0  0  0  0  0  0
   53.4109  161.7847   -3.2771 H   0  0  0  0  0  0  0  0  0  0  0  0
   55.0542  161.7086   -2.5862 H   0  0  0  0  0  0  0  0  0  0  0  0
   53.4759  158.4082   -5.3309 H   0  0  0  0  0  0  0  0  0  0  0  0
   55.0558  159.3857   -5.9169 H   0  0  0  0  0  0  0  0  0  0  0  0
   59.4028  159.0313   -6.7816 H   0  0  0  0  0  0  0  0  0  0  0  0
   59.2453  158.9984   -5.0249 H   0  0  0  0  0  0  0  0  0  0  0  0
   51.8473  157.2978   -3.8137 H   0  0  0  0  0  0  0  0  0  0  0  0
   57.2708  159.9597   -6.9634 H   0  0  0  0  0  0  0  0  0  0  0  0
  1  3  1  0  0  0  0
  1  5  2  0  0  0  0
  2  4  2  0  0  0  0
  2  5  1  0  0  0  0
  3  6  2  0  0  0  0
  4  6  1  0  0  0  0
  5 16  1  0  0  0  0
  6 24  1  0  0  0  0
  7 10  1  0  0  0  0
  7 17  1  0  0  0  0
  7 20  2  0  0  0  0
  8 14  1  0  0  0  0
  8 18  1  0  0  0  0
  8 21  2  0  0  0  0
  9 15  1  0  0  0  0
  9 19  1  0  0  0  0
  9 22  2  0  0  0  0
 10 11  1  0  0  0  0
 11 14  1  0  0  0  0
 12 15  1  0  0  0  0
 12 23  1  0  0  0  0
 13 18  1  0  0  0  0
 13 23  1  0  0  0  0
 14 17  1  0  0  0  0
 15 18  1  0  0  0  0
 16 19  1  0  0  0  0
  1 25  1  0  0  0  0
  2 26  1  0  0  0  0
  3 27  1  0  0  0  0
  4 28  1  0  0  0  0
 10 29  1  0  0  0  0
 10 30  1  0  0  0  0
 11 31  1  0  0  0  0
 11 32  1  0  0  0  0
 12 33  1  0  0  0  0
 12 34  1  0  0  0  0
 13 35  1  0  0  0  0
 13 36  1  0  0  0  0
 14 37  1  0  0  0  0
 15 38  1  0  0  0  0
 16 39  1  0  0  0  0
 16 40  1  0  0  0  0
 17 41  1  0  0  0  0
 19 42  1  0  0  0  0
M  END
> <FRED Chemgauss4 score>
-8.058179

$$$$
C80531866	P125774789
  -OEChem-05122015073D

 40 41  0     1  0  0  0  0  0999 V2000
   56.9031  158.9854   -0.4352 C   0  0  0  0  0  0  0  0  0  0  0  0
   57.6407  160.1524   -0.6342 C   0  0  0  0  0  0  0  0  0  0  0  0
   55.9810  158.5707   -1.3962 C   0  0  0  0  0  0  0  0  0  0  0  0
   56.5342  160.4901   -2.7552 C   0  0  0  0  0  0  0  0  0  0  0  0
   54.7396  154.1774   -6.5644 C   0  0  0  0  0  0  0  0  0  0  0  0
   57.4562  160.9048   -1.7941 C   0  0  0  0  0  0  0  0  0  0  0  0
   55.7966  159.3231   -2.5562 C   0  0  0  0  0  0  0  0  0  0  0  0
   55.4458  155.8916   -5.6052 C   0  0  0  0  0  0  0  0  0  0  0  0
   56.4886  163.6389   -0.9119 C   0  0  0  0  0  0  0  0  0  0  0  0
   56.5366  159.3183   -5.6865 C   0  0  0  0  0  0  0  0  0  0  0  0
   56.2857  156.9714   -4.9865 C   0  0  0  0  0  0  0  0  0  0  0  0
   57.3477  163.4047   -2.1485 C   0  0  0  0  0  0  0  0  0  0  0  0
   58.2580  162.1725   -2.0095 C   0  0  2  0  0  0  0  0  0  0  0  0
   55.8930  154.8000   -6.1814 N   0  0  0  0  0  0  0  0  0  0  0  0
   54.0865  155.9081   -5.6486 N   0  0  0  0  0  0  0  0  0  0  0  0
   53.6069  154.8151   -6.2614 N   0  0  0  0  0  0  0  0  0  0  0  0
   59.1337  162.0352   -3.1518 N   0  0  0  0  0  0  0  0  0  0  0  0
   55.6365  158.3036   -5.0818 N   0  0  1  0  0  0  0  0  0  0  0  0
   53.9330  157.6401   -3.2369 O   0  0  0  0  0  0  0  0  0  0  0  0
   53.8602  159.9655   -4.1702 O   0  0  0  0  0  0  0  0  0  0  0  0
   54.6414  158.8043   -3.7579 S   0  0  0  0  0  0  0  0  0  0  0  0
   57.0472  158.3990    0.4676 H   0  0  0  0  0  0  0  0  0  0  0  0
   58.3577  160.4672    0.1196 H   0  0  0  0  0  0  0  0  0  0  0  0
   55.4115  157.6602   -1.2305 H   0  0  0  0  0  0  0  0  0  0  0  0
   56.3916  161.0775   -3.6591 H   0  0  0  0  0  0  0  0  0  0  0  0
   54.7420  153.2267   -7.0812 H   0  0  0  0  0  0  0  0  0  0  0  0
   57.1100  163.7453   -0.0170 H   0  0  0  0  0  0  0  0  0  0  0  0
   55.9039  164.5570   -1.0287 H   0  0  0  0  0  0  0  0  0  0  0  0
   55.7882  162.8138   -0.7499 H   0  0  0  0  0  0  0  0  0  0  0  0
   56.0295  160.2850   -5.7419 H   0  0  0  0  0  0  0  0  0  0  0  0
   56.8251  159.0138   -6.6962 H   0  0  0  0  0  0  0  0  0  0  0  0
   57.4409  159.4294   -5.0821 H   0  0  0  0  0  0  0  0  0  0  0  0
   56.4676  156.7598   -3.9272 H   0  0  0  0  0  0  0  0  0  0  0  0
   57.2624  157.0391   -5.4770 H   0  0  0  0  0  0  0  0  0  0  0  0
   56.6878  163.3040   -3.0193 H   0  0  0  0  0  0  0  0  0  0  0  0
   57.9606  164.2995   -2.3169 H   0  0  0  0  0  0  0  0  0  0  0  0
   58.9218  162.3257   -1.1495 H   0  0  0  0  0  0  0  0  0  0  0  0
   52.6138  154.6437   -6.3929 H   0  0  0  0  0  0  0  0  0  0  0  0
   59.5409  161.1380   -3.3439 H   0  0  0  0  0  0  0  0  0  0  0  0
   59.4756  162.8652   -3.6013 H   0  0  0  0  0  0  0  0  0  0  0  0
  1  2  2  0  0  0  0
  1  3  1  0  0  0  0
  2  6  1  0  0  0  0
  3  7  2  0  0  0  0
  4  6  2  0  0  0  0
  4  7  1  0  0  0  0
  5 14  2  0  0  0  0
  5 16  1  0  0  0  0
  6 13  1  0  0  0  0
  7 21  1  0  0  0  0
  8 11  1  0  0  0  0
  8 14  1  0  0  0  0
  8 15  2  0  0  0  0
  9 12  1  0  0  0  0
 10 18  1  0  0  0  0
 11 18  1  0  0  0  0
 12 13  1  0  0  0  0
 13 17  1  0  0  0  0
 15 16  1  0  0  0  0
 18 21  1  0  0  0  0
 19 21  2  0  0  0  0
 20 21  2  0  0  0  0
  1 22  1  0  0  0  0
  2 23  1  0  0  0  0
  3 24  1  0  0  0  0
  4 25  1  0  0  0  0
  5 26  1  0  0  0  0
  9 27  1  0  0  0  0
  9 28  1  0  0  0  0
  9 29  1  0  0  0  0
 10 30  1  0  0  0  0
 10 31  1  0  0  0  0
 10 32  1  0  0  0  0
 11 33  1  0  0  0  0
 11 34  1  0  0  0  0
 12 35  1  0  0  0  0
 12 36  1  0  0  0  0
 13 37  1  0  0  0  0
 16 38  1  0  0  0  0
 17 39  1  0  0  0  0
 17 40  1  0  0  0  0
M  END
> <FRED Chemgauss4 score>
-8.050750

$$$$
C96141854	P151445700
  -OEChem-05122015073D

 47 49  0     1  0  0  0  0  0999 V2000
   57.0517  153.1165   -7.1507 C   0  0  0  0  0  0  0  0  0  0  0  0
   58.3405  153.2466   -7.6191 C   0  0  0  0  0  0  0  0  0  0  0  0
   57.3684  155.4124   -6.9756 C   0  0  0  0  0  0  0  0  0  0  0  0
   57.4379  159.9220   -3.6035 C   0  0  0  0  0  0  0  0  0  0  0  0
   56.4884  154.3710   -6.7780 C   0  0  0  0  0  0  0  0  0  0  0  0
   56.3126  159.9812   -2.8082 C   0  0  0  0  0  0  0  0  0  0  0  0
   57.0004  162.0490   -2.5608 C   0  0  0  0  0  0  0  0  0  0  0  0
   55.4000  158.8312   -2.5810 C   0  0  0  0  0  0  0  0  0  0  0  0
   53.4254  157.2712   -6.1265 C   0  0  0  0  0  0  0  0  0  0  0  0
   53.5423  156.6585   -3.7015 C   0  0  0  0  0  0  0  0  0  0  0  0
   55.5025  155.3297   -3.9785 C   0  0  0  0  0  0  0  0  0  0  0  0
   53.6324  156.1580   -5.1474 C   0  0  2  0  0  0  0  0  0  0  0  0
   54.9394  156.4542   -3.1239 C   0  0  1  0  0  0  0  0  0  0  0  0
   57.0647  163.4580   -2.1156 C   0  0  0  0  0  0  0  0  0  0  0  0
   52.3515  160.2688   -6.4009 C   0  0  0  0  0  0  0  0  0  0  0  0
   55.0991  154.5363   -6.2332 C   0  0  0  0  0  0  0  0  0  0  0  0
   51.7816  158.9775   -6.8810 C   0  0  0  0  0  0  0  0  0  0  0  0
   56.0604  161.1999   -2.2092 N   0  0  0  0  0  0  0  0  0  0  0  0
   55.0037  155.6646   -5.3160 N   0  0  2  0  0  0  0  0  0  0  0  0
   55.7395  157.6515   -3.2261 N   0  0  0  0  0  0  0  0  0  0  0  0
   52.1887  157.8804   -6.0326 N   0  0  0  0  0  0  0  0  0  0  0  0
   54.4089  158.9828   -1.8715 O   0  0  0  0  0  0  0  0  0  0  0  0
   54.3214  157.5603   -6.9110 O   0  0  0  0  0  0  0  0  0  0  0  0
   58.8666  154.8762   -7.6082 S   0  0  0  0  0  0  0  0  0  0  0  0
   58.2185  161.4491   -3.6103 S   0  0  0  0  0  0  0  0  0  0  0  0
   56.5410  152.1643   -7.0800 H   0  0  0  0  0  0  0  0  0  0  0  0
   58.9987  152.4628   -7.9665 H   0  0  0  0  0  0  0  0  0  0  0  0
   57.2078  156.4634   -6.7789 H   0  0  0  0  0  0  0  0  0  0  0  0
   57.8298  159.0856   -4.1652 H   0  0  0  0  0  0  0  0  0  0  0  0
   53.1965  157.6942   -3.6124 H   0  0  0  0  0  0  0  0  0  0  0  0
   52.8380  156.0199   -3.1534 H   0  0  0  0  0  0  0  0  0  0  0  0
   56.5965  155.2882   -3.9544 H   0  0  0  0  0  0  0  0  0  0  0  0
   55.1013  154.3673   -3.6353 H   0  0  0  0  0  0  0  0  0  0  0  0
   52.8695  155.3848   -5.3226 H   0  0  0  0  0  0  0  0  0  0  0  0
   54.9063  156.1838   -2.0637 H   0  0  0  0  0  0  0  0  0  0  0  0
   57.6420  163.5507   -1.1824 H   0  0  0  0  0  0  0  0  0  0  0  0
   57.5377  164.1064   -2.8711 H   0  0  0  0  0  0  0  0  0  0  0  0
   56.0614  163.8779   -1.9353 H   0  0  0  0  0  0  0  0  0  0  0  0
   52.0100  160.4928   -5.3845 H   0  0  0  0  0  0  0  0  0  0  0  0
   53.4465  160.2419   -6.4163 H   0  0  0  0  0  0  0  0  0  0  0  0
   52.0235  161.0855   -7.0551 H   0  0  0  0  0  0  0  0  0  0  0  0
   54.3828  154.7006   -7.0456 H   0  0  0  0  0  0  0  0  0  0  0  0
   54.7791  153.6385   -5.6940 H   0  0  0  0  0  0  0  0  0  0  0  0
   52.1266  158.7601   -7.8963 H   0  0  0  0  0  0  0  0  0  0  0  0
   50.6882  159.0117   -6.8800 H   0  0  0  0  0  0  0  0  0  0  0  0
   56.5419  157.6209   -3.8479 H   0  0  0  0  0  0  0  0  0  0  0  0
   51.5344  157.5410   -5.3339 H   0  0  0  0  0  0  0  0  0  0  0  0
  1  2  2  0  0  0  0
  1  5  1  0  0  0  0
  2 24  1  0  0  0  0
  3  5  2  0  0  0  0
  3 24  1  0  0  0  0
  4  6  2  0  0  0  0
  4 25  1  0  0  0  0
  5 16  1  0  0  0  0
  6  8  1  0  0  0  0
  6 18  1  0  0  0  0
  7 14  1  0  0  0  0
  7 18  2  0  0  0  0
  7 25  1  0  0  0  0
  8 20  1  0  0  0  0
  8 22  2  0  0  0  0
  9 12  1  0  0  0  0
  9 21  1  0  0  0  0
  9 23  2  0  0  0  0
 10 12  1  0  0  0  0
 10 13  1  0  0  0  0
 11 13  1  0  0  0  0
 11 19  1  0  0  0  0
 12 19  1  0  0  0  0
 13 20  1  0  0  0  0
 15 17  1  0  0  0  0
 16 19  1  0  0  0  0
 17 21  1  0  0  0  0
  1 26  1  0  0  0  0
  2 27  1  0  0  0  0
  3 28  1  0  0  0  0
  4 29  1  0  0  0  0
 10 30  1  0  0  0  0
 10 31  1  0  0  0  0
 11 32  1  0  0  0  0
 11 33  1  0  0  0  0
 12 34  1  0  0  0  0
 13 35  1  0  0  0  0
 14 36  1  0  0  0  0
 14 37  1  0  0  0  0
 14 38  1  0  0  0  0
 15 39  1  0  0  0  0
 15 40  1  0  0  0  0
 15 41  1  0  0  0  0
 16 42  1  0  0  0  0
 16 43  1  0  0  0  0
 17 44  1  0  0  0  0
 17 45  1  0  0  0  0
 20 46  1  0  0  0  0
 21 47  1  0  0  0  0
M  END
> <FRED Chemgauss4 score>
-8.032414

$$$$
C72169033	P112081059
  -OEChem-05122015073D

 21 21  0     1  0  0  0  0  0999 V2000
   55.4991  156.3276   -5.4202 C   0  0  0  0  0  0  0  0  0  0  0  0
   54.5317  154.4624   -4.9312 C   0  0  0  0  0  0  0  0  0  0  0  0
   54.3993  155.4776   -6.0791 C   0  0  0  0  0  0  0  0  0  0  0  0
   55.3382  155.5020   -4.1293 C   0  0  0  0  0  0  0  0  0  0  0  0
   55.6937  157.3909   -2.0339 C   0  0  0  0  0  0  0  0  0  0  0  0
   53.0893  156.1481   -6.1136 N   0  3  0  0  0  0  0  0  0  0  0  0
   53.3910  157.1147   -3.4985 O   0  5  0  0  0  0  0  0  0  0  0  0
   54.1035  155.1624   -1.8597 O   0  0  0  0  0  0  0  0  0  0  0  0
   54.4395  156.3284   -2.7539 P   0  0  1  0  0  0  0  0  0  0  0  0
   56.4915  156.2672   -5.8958 H   0  0  0  0  0  0  0  0  0  0  0  0
   55.2535  157.3978   -5.2965 H   0  0  0  0  0  0  0  0  0  0  0  0
   53.5799  154.1716   -4.4509 H   0  0  0  0  0  0  0  0  0  0  0  0
   55.0752  153.5362   -5.1794 H   0  0  0  0  0  0  0  0  0  0  0  0
   54.6741  155.0763   -7.0669 H   0  0  0  0  0  0  0  0  0  0  0  0
   56.2976  155.0997   -3.7640 H   0  0  0  0  0  0  0  0  0  0  0  0
   55.2758  157.9463   -1.1905 H   0  0  0  0  0  0  0  0  0  0  0  0
   56.5353  156.7906   -1.6794 H   0  0  0  0  0  0  0  0  0  0  0  0
   56.0564  158.1019   -2.7803 H   0  0  0  0  0  0  0  0  0  0  0  0
   53.1760  157.1679   -5.9818 H   0  0  0  0  0  0  0  0  0  0  0  0
   52.4609  155.8007   -5.3723 H   0  0  0  0  0  0  0  0  0  0  0  0
   52.6056  156.0002   -7.0131 H   0  0  0  0  0  0  0  0  0  0  0  0
  1  3  1  0  0  0  0
  1  4  1  0  0  0  0
  2  3  1  0  0  0  0
  2  4  1  0  0  0  0
  3  6  1  0  0  0  0
  4  9  1  0  0  0  0
  5  9  1  0  0  0  0
  7  9  1  0  0  0  0
  8  9  2  0  0  0  0
  1 10  1  0  0  0  0
  1 11  1  0  0  0  0
  2 12  1  0  0  0  0
  2 13  1  0  0  0  0
  3 14  1  0  0  0  0
  4 15  1  0  0  0  0
  5 16  1  0  0  0  0
  5 17  1  0  0  0  0
  5 18  1  0  0  0  0
  6 19  1  0  0  0  0
  6 20  1  0  0  0  0
  6 21  1  0  0  0  0
M  CHG  2   6   1   7  -1
M  END
> <FRED Chemgauss4 score>
-8.030372

$$$$
C48248090	P128160691
  -OEChem-05122015073D

 42 44  0     0  0  0  0  0  0999 V2000
   58.5594  155.8641   -6.1077 C   0  0  0  0  0  0  0  0  0  0  0  0
   56.9329  154.1663   -6.6640 C   0  0  0  0  0  0  0  0  0  0  0  0
   57.5287  156.7722   -5.8657 C   0  0  0  0  0  0  0  0  0  0  0  0
   55.9022  155.0744   -6.4219 C   0  0  0  0  0  0  0  0  0  0  0  0
   56.8615  162.3450    0.1440 C   0  0  0  0  0  0  0  0  0  0  0  0
   57.3061  161.9616    1.4118 C   0  0  0  0  0  0  0  0  0  0  0  0
   55.9467  159.1111   -1.3419 C   0  0  0  0  0  0  0  0  0  0  0  0
   56.8516  159.6654    0.8661 C   0  0  0  0  0  0  0  0  0  0  0  0
   56.4045  160.0513   -0.4090 C   0  0  0  0  0  0  0  0  0  0  0  0
   58.2615  154.5611   -6.5069 C   0  0  0  0  0  0  0  0  0  0  0  0
   55.5118  159.5241   -2.5930 C   0  0  0  0  0  0  0  0  0  0  0  0
   56.2001  156.3774   -6.0227 C   0  0  0  0  0  0  0  0  0  0  0  0
   56.4067  161.4114   -0.7832 C   0  0  0  0  0  0  0  0  0  0  0  0
   57.3013  160.6202    1.7736 C   0  0  0  0  0  0  0  0  0  0  0  0
   55.5511  160.8760   -2.8680 C   0  0  0  0  0  0  0  0  0  0  0  0
   59.3354  153.6133   -6.7591 C   0  0  0  0  0  0  0  0  0  0  0  0
   55.0381  158.5444   -3.5584 C   0  0  0  0  0  0  0  0  0  0  0  0
   55.0987  161.3909   -4.1957 C   0  0  0  0  0  0  0  0  0  0  0  0
   55.0926  157.3535   -5.7613 C   0  0  0  0  0  0  0  0  0  0  0  0
   55.9852  161.8151   -1.9966 N   0  0  0  0  0  0  0  0  0  0  0  0
   60.6436  154.0563   -6.5876 N   0  0  0  0  0  0  0  0  0  0  0  0
   55.5312  158.3154   -4.7316 N   0  3  0  0  0  0  0  0  0  0  0  0
   59.0995  152.4506   -7.1318 O   0  0  0  0  0  0  0  0  0  0  0  0
   53.9589  157.8003   -3.2293 O   0  0  0  0  0  0  0  0  0  0  0  0
   57.8474  160.1429    3.3332 Cl  0  0  0  0  0  0  0  0  0  0  0  0
   59.5912  156.1817   -5.9824 H   0  0  0  0  0  0  0  0  0  0  0  0
   56.6890  153.1537   -6.9746 H   0  0  0  0  0  0  0  0  0  0  0  0
   57.7698  157.7852   -5.5547 H   0  0  0  0  0  0  0  0  0  0  0  0
   54.8698  154.7581   -6.5462 H   0  0  0  0  0  0  0  0  0  0  0  0
   56.8747  163.4022   -0.1151 H   0  0  0  0  0  0  0  0  0  0  0  0
   57.6524  162.7248    2.1040 H   0  0  0  0  0  0  0  0  0  0  0  0
   55.9310  158.0527   -1.0875 H   0  0  0  0  0  0  0  0  0  0  0  0
   56.8463  158.6134    1.1464 H   0  0  0  0  0  0  0  0  0  0  0  0
   54.0282  161.6237   -4.1674 H   0  0  0  0  0  0  0  0  0  0  0  0
   55.6471  162.2984   -4.4759 H   0  0  0  0  0  0  0  0  0  0  0  0
   55.2758  160.6528   -4.9875 H   0  0  0  0  0  0  0  0  0  0  0  0
   54.8268  157.9061   -6.6685 H   0  0  0  0  0  0  0  0  0  0  0  0
   54.1897  156.8458   -5.4062 H   0  0  0  0  0  0  0  0  0  0  0  0
   60.8089  155.0136   -6.2959 H   0  0  0  0  0  0  0  0  0  0  0  0
   61.4359  153.4427   -6.7480 H   0  0  0  0  0  0  0  0  0  0  0  0
   56.3515  158.8679   -5.0031 H   0  0  0  0  0  0  0  0  0  0  0  0
   53.5931  157.9997   -2.3505 H   0  0  0  0  0  0  0  0  0  0  0  0
  1  3  2  0  0  0  0
  1 10  1  0  0  0  0
  2  4  1  0  0  0  0
  2 10  2  0  0  0  0
  3 12  1  0  0  0  0
  4 12  2  0  0  0  0
  5  6  2  0  0  0  0
  5 13  1  0  0  0  0
  6 14  1  0  0  0  0
  7  9  1  0  0  0  0
  7 11  2  0  0  0  0
  8  9  1  0  0  0  0
  8 14  2  0  0  0  0
  9 13  2  0  0  0  0
 10 16  1  0  0  0  0
 11 15  1  0  0  0  0
 11 17  1  0  0  0  0
 12 19  1  0  0  0  0
 13 20  1  0  0  0  0
 14 25  1  0  0  0  0
 15 18  1  0  0  0  0
 15 20  2  0  0  0  0
 16 21  1  0  0  0  0
 16 23  2  0  0  0  0
 17 22  2  0  0  0  0
 17 24  1  0  0  0  0
 19 22  1  0  0  0  0
  1 26  1  0  0  0  0
  2 27  1  0  0  0  0
  3 28  1  0  0  0  0
  4 29  1  0  0  0  0
  5 30  1  0  0  0  0
  6 31  1  0  0  0  0
  7 32  1  0  0  0  0
  8 33  1  0  0  0  0
 18 34  1  0  0  0  0
 18 35  1  0  0  0  0
 18 36  1  0  0  0  0
 19 37  1  0  0  0  0
 19 38  1  0  0  0  0
 21 39  1  0  0  0  0
 21 40  1  0  0  0  0
 22 41  1  0  0  0  0
 24 42  1  0  0  0  0
M  CHG  1  22   1
M  END
> <FRED Chemgauss4 score>
-8.022926

$$$$
C87697014	P137174208
  -OEChem-05122015073D

 29 29  0     0  0  0  0  0  0999 V2000
   56.9119  154.4155   -6.3673 C   0  0  0  0  0  0  0  0  0  0  0  0
   58.8098  154.8812   -7.6893 C   0  0  0  0  0  0  0  0  0  0  0  0
   55.8495  153.8497   -5.6104 C   0  0  0  0  0  0  0  0  0  0  0  0
   53.0287  155.5201   -3.7233 C   0  0  0  0  0  0  0  0  0  0  0  0
   62.2261  157.8984   -8.4750 C   0  0  0  0  0  0  0  0  0  0  0  0
   53.8003  154.3082   -4.1922 C   0  0  0  0  0  0  0  0  0  0  0  0
   61.5297  156.6522   -7.9473 C   0  0  0  0  0  0  0  0  0  0  0  0
   60.6258  155.9983   -8.9855 C   0  0  0  0  0  0  0  0  0  0  0  0
   57.0801  155.7091   -6.5405 N   0  0  0  0  0  0  0  0  0  0  0  0
   58.1928  155.9822   -7.3168 N   0  0  0  0  0  0  0  0  0  0  0  0
   52.0369  155.8844   -4.6085 N   0  0  0  0  0  0  0  0  0  0  0  0
   59.9564  154.8349   -8.4732 N   0  0  0  0  0  0  0  0  0  0  0  0
   54.9178  154.7272   -5.0074 N   0  0  0  0  0  0  0  0  0  0  0  0
   55.7367  152.6040   -5.4528 O   0  0  0  0  0  0  0  0  0  0  0  0
   53.2301  156.0892   -2.6539 O   0  0  0  0  0  0  0  0  0  0  0  0
   58.0899  153.4288   -7.1292 S   0  0  0  0  0  0  0  0  0  0  0  0
   62.8431  157.6629   -9.3481 H   0  0  0  0  0  0  0  0  0  0  0  0
   61.4845  158.6452   -8.7764 H   0  0  0  0  0  0  0  0  0  0  0  0
   62.8668  158.3510   -7.7119 H   0  0  0  0  0  0  0  0  0  0  0  0
   53.1677  153.6521   -4.7962 H   0  0  0  0  0  0  0  0  0  0  0  0
   54.1852  153.7623   -3.3266 H   0  0  0  0  0  0  0  0  0  0  0  0
   60.9248  156.9311   -7.0767 H   0  0  0  0  0  0  0  0  0  0  0  0
   62.2851  155.9365   -7.6017 H   0  0  0  0  0  0  0  0  0  0  0  0
   59.8486  156.7014   -9.3013 H   0  0  0  0  0  0  0  0  0  0  0  0
   61.1924  155.6960   -9.8718 H   0  0  0  0  0  0  0  0  0  0  0  0
   51.8845  155.3616   -5.4646 H   0  0  0  0  0  0  0  0  0  0  0  0
   51.4255  156.6776   -4.4437 H   0  0  0  0  0  0  0  0  0  0  0  0
   60.3390  153.9188   -8.6951 H   0  0  0  0  0  0  0  0  0  0  0  0
   55.0725  155.7258   -5.1004 H   0  0  0  0  0  0  0  0  0  0  0  0
  1  3  1  0  0  0  0
  1  9  2  0  0  0  0
  1 16  1  0  0  0  0
  2 10  2  0  0  0  0
  2 12  1  0  0  0  0
  2 16  1  0  0  0  0
  3 13  1  0  0  0  0
  3 14  2  0  0  0  0
  4  6  1  0  0  0  0
  4 11  1  0  0  0  0
  4 15  2  0  0  0  0
  5  7  1  0  0  0  0
  6 13  1  0  0  0  0
  7  8  1  0  0  0  0
  8 12  1  0  0  0  0
  9 10  1  0  0  0  0
  5 17  1  0  0  0  0
  5 18  1  0  0  0  0
  5 19  1  0  0  0  0
  6 20  1  0  0  0  0
  6 21  1  0  0  0  0
  7 22  1  0  0  0  0
  7 23  1  0  0  0  0
  8 24  1  0  0  0  0
  8 25  1  0  0  0  0
 11 26  1  0  0  0  0
 11 27  1  0  0  0  0
 12 28  1  0  0  0  0
 13 29  1  0  0  0  0
M  END
> <FRED Chemgauss4 score>
-8.006359

$$$$
C97693754	P154923233
  -OEChem-05122015073D

 40 41  0     1  0  0  0  0  0999 V2000
   55.9735  154.5605   -6.5358 C   0  0  0  0  0  0  0  0  0  0  0  0
   56.9594  153.6517   -6.9039 C   0  0  0  0  0  0  0  0  0  0  0  0
   54.1050  156.9672   -3.7437 C   0  0  0  0  0  0  0  0  0  0  0  0
   56.1406  157.7882   -3.8761 C   0  0  0  0  0  0  0  0  0  0  0  0
   56.2576  155.9216   -6.5304 C   0  0  0  0  0  0  0  0  0  0  0  0
   55.1595  157.2102   -4.6441 C   0  0  0  0  0  0  0  0  0  0  0  0
   58.2032  154.1510   -7.2552 C   0  0  0  0  0  0  0  0  0  0  0  0
   57.5328  156.3193   -6.8982 C   0  0  0  0  0  0  0  0  0  0  0  0
   59.2842  153.2040   -7.6573 C   0  0  0  0  0  0  0  0  0  0  0  0
   57.8938  157.7685   -6.9139 C   0  0  0  0  0  0  0  0  0  0  0  0
   55.5232  160.7351   -1.9097 C   0  0  0  0  0  0  0  0  0  0  0  0
   56.7235  159.8413   -1.6447 C   0  0  0  0  0  0  0  0  0  0  0  0
   56.3013  158.3869   -1.4483 C   0  0  0  0  0  0  0  0  0  0  0  0
   55.2059  156.8999   -6.1357 C   0  0  2  0  0  0  0  0  0  0  0  0
   54.3895  157.3587   -2.4988 N   0  0  0  0  0  0  0  0  0  0  0  0
   58.5164  155.4661   -7.2619 N   0  0  0  0  0  0  0  0  0  0  0  0
   55.6339  157.8535   -2.6115 N   0  0  0  0  0  0  0  0  0  0  0  0
   53.0358  157.6120   -6.6352 N   0  0  0  0  0  0  0  0  0  0  0  0
   53.8735  156.4638   -6.5951 N   0  0  0  0  0  0  0  0  0  0  0  0
   54.9881  154.1993   -6.2553 H   0  0  0  0  0  0  0  0  0  0  0  0
   56.7509  152.5871   -6.9109 H   0  0  0  0  0  0  0  0  0  0  0  0
   53.1406  156.5205   -3.9402 H   0  0  0  0  0  0  0  0  0  0  0  0
   57.1319  158.1485   -4.1155 H   0  0  0  0  0  0  0  0  0  0  0  0
   59.2559  153.0309   -8.7398 H   0  0  0  0  0  0  0  0  0  0  0  0
   60.2746  153.5957   -7.3926 H   0  0  0  0  0  0  0  0  0  0  0  0
   59.1769  152.2385   -7.1467 H   0  0  0  0  0  0  0  0  0  0  0  0
   58.2886  158.0721   -5.9374 H   0  0  0  0  0  0  0  0  0  0  0  0
   58.6514  157.9800   -7.6785 H   0  0  0  0  0  0  0  0  0  0  0  0
   57.0216  158.3916   -7.1476 H   0  0  0  0  0  0  0  0  0  0  0  0
   54.8030  160.6785   -1.0873 H   0  0  0  0  0  0  0  0  0  0  0  0
   55.0152  160.4254   -2.8284 H   0  0  0  0  0  0  0  0  0  0  0  0
   55.8303  161.7794   -2.0267 H   0  0  0  0  0  0  0  0  0  0  0  0
   57.4247  159.9199   -2.4842 H   0  0  0  0  0  0  0  0  0  0  0  0
   57.2543  160.2028   -0.7557 H   0  0  0  0  0  0  0  0  0  0  0  0
   55.6172  158.2876   -0.5971 H   0  0  0  0  0  0  0  0  0  0  0  0
   57.1692  157.7498   -1.2409 H   0  0  0  0  0  0  0  0  0  0  0  0
   55.3579  157.8613   -6.6608 H   0  0  0  0  0  0  0  0  0  0  0  0
   52.2618  157.4967   -5.9816 H   0  0  0  0  0  0  0  0  0  0  0  0
   53.5733  158.4074   -6.2927 H   0  0  0  0  0  0  0  0  0  0  0  0
   53.9663  156.0702   -7.5241 H   0  0  0  0  0  0  0  0  0  0  0  0
  1  2  2  0  0  0  0
  1  5  1  0  0  0  0
  2  7  1  0  0  0  0
  3  6  1  0  0  0  0
  3 15  2  0  0  0  0
  4  6  2  0  0  0  0
  4 17  1  0  0  0  0
  5  8  2  0  0  0  0
  5 14  1  0  0  0  0
  6 14  1  0  0  0  0
  7  9  1  0  0  0  0
  7 16  2  0  0  0  0
  8 10  1  0  0  0  0
  8 16  1  0  0  0  0
 11 12  1  0  0  0  0
 12 13  1  0  0  0  0
 13 17  1  0  0  0  0
 14 19  1  0  0  0  0
 15 17  1  0  0  0  0
 18 19  1  0  0  0  0
  1 20  1  0  0  0  0
  2 21  1  0  0  0  0
  3 22  1  0  0  0  0
  4 23  1  0  0  0  0
  9 24  1  0  0  0  0
  9 25  1  0  0  0  0
  9 26  1  0  0  0  0
 10 27  1  0  0  0  0
 10 28  1  0  0  0  0
 10 29  1  0  0  0  0
 11 30  1  0  0  0  0
 11 31  1  0  0  0  0
 11 32  1  0  0  0  0
 12 33  1  0  0  0  0
 12 34  1  0  0  0  0
 13 35  1  0  0  0  0
 13 36  1  0  0  0  0
 14 37  1  0  0  0  0
 18 38  1  0  0  0  0
 18 39  1  0  0  0  0
 19 40  1  0  0  0  0
M  END
> <FRED Chemgauss4 score>
-8.005960

$$$$
C76956266	P120080704
  -OEChem-05122015073D

 39 40  0     0  0  0  0  0  0999 V2000
   62.0453  162.7470   -5.6339 C   0  0  0  0  0  0  0  0  0  0  0  0
   61.5742  163.1970   -4.4684 C   0  0  0  0  0  0  0  0  0  0  0  0
   59.5465  160.6514   -5.0803 C   0  0  0  0  0  0  0  0  0  0  0  0
   53.7108  155.9074   -3.3426 C   0  0  0  0  0  0  0  0  0  0  0  0
   60.9743  162.1306   -6.4719 C   0  0  0  0  0  0  0  0  0  0  0  0
   60.1070  162.9592   -4.3268 C   0  0  0  0  0  0  0  0  0  0  0  0
   57.4341  158.1665   -5.5342 C   0  0  0  0  0  0  0  0  0  0  0  0
   56.5886  159.1846   -3.4044 C   0  0  0  0  0  0  0  0  0  0  0  0
   56.8672  156.8241   -5.0689 C   0  0  0  0  0  0  0  0  0  0  0  0
   56.0485  157.8089   -3.0099 C   0  0  0  0  0  0  0  0  0  0  0  0
   59.7751  162.0590   -5.5214 C   0  0  0  0  0  0  0  0  0  0  0  0
   57.7864  159.0617   -4.3458 C   0  0  0  0  0  0  0  0  0  0  0  0
   55.1389  155.7239   -3.8021 C   0  0  0  0  0  0  0  0  0  0  0  0
   55.7001  157.0158   -4.1969 N   0  0  0  0  0  0  0  0  0  0  0  0
   52.9100  156.4489   -4.3251 N   0  0  0  0  0  0  0  0  0  0  0  0
   58.2278  160.3611   -4.7876 N   0  0  0  0  0  0  0  0  0  0  0  0
   60.4950  159.8786   -5.0102 O   0  0  0  0  0  0  0  0  0  0  0  0
   53.2981  155.5704   -2.2362 O   0  0  0  0  0  0  0  0  0  0  0  0
   63.0750  162.8374   -5.9482 H   0  0  0  0  0  0  0  0  0  0  0  0
   62.1751  163.6970   -3.7226 H   0  0  0  0  0  0  0  0  0  0  0  0
   60.7640  162.7767   -7.3311 H   0  0  0  0  0  0  0  0  0  0  0  0
   61.2812  161.1465   -6.8404 H   0  0  0  0  0  0  0  0  0  0  0  0
   59.8755  162.4887   -3.3658 H   0  0  0  0  0  0  0  0  0  0  0  0
   59.5735  163.9139   -4.3867 H   0  0  0  0  0  0  0  0  0  0  0  0
   58.3373  157.9863   -6.1260 H   0  0  0  0  0  0  0  0  0  0  0  0
   56.7113  158.6615   -6.1883 H   0  0  0  0  0  0  0  0  0  0  0  0
   55.7911  159.7704   -3.8697 H   0  0  0  0  0  0  0  0  0  0  0  0
   56.8979  159.7187   -2.5000 H   0  0  0  0  0  0  0  0  0  0  0  0
   56.6090  156.2052   -5.9383 H   0  0  0  0  0  0  0  0  0  0  0  0
   57.6552  156.2950   -4.5189 H   0  0  0  0  0  0  0  0  0  0  0  0
   56.8264  157.2905   -2.4357 H   0  0  0  0  0  0  0  0  0  0  0  0
   55.1807  157.9236   -2.3470 H   0  0  0  0  0  0  0  0  0  0  0  0
   58.8570  162.3939   -6.0232 H   0  0  0  0  0  0  0  0  0  0  0  0
   58.6337  158.6304   -3.8026 H   0  0  0  0  0  0  0  0  0  0  0  0
   55.1883  155.0550   -4.6655 H   0  0  0  0  0  0  0  0  0  0  0  0
   55.7378  155.3193   -2.9817 H   0  0  0  0  0  0  0  0  0  0  0  0
   53.2883  156.6793   -5.2379 H   0  0  0  0  0  0  0  0  0  0  0  0
   51.9229  156.6361   -4.1803 H   0  0  0  0  0  0  0  0  0  0  0  0
   57.5367  161.0980   -4.8885 H   0  0  0  0  0  0  0  0  0  0  0  0
  1  2  2  0  0  0  0
  1  5  1  0  0  0  0
  2  6  1  0  0  0  0
  3 11  1  0  0  0  0
  3 16  1  0  0  0  0
  3 17  2  0  0  0  0
  4 13  1  0  0  0  0
  4 15  1  0  0  0  0
  4 18  2  0  0  0  0
  5 11  1  0  0  0  0
  6 11  1  0  0  0  0
  7  9  1  0  0  0  0
  7 12  1  0  0  0  0
  8 10  1  0  0  0  0
  8 12  1  0  0  0  0
  9 14  1  0  0  0  0
 10 14  1  0  0  0  0
 12 16  1  0  0  0  0
 13 14  1  0  0  0  0
  1 19  1  0  0  0  0
  2 20  1  0  0  0  0
  5 21  1  0  0  0  0
  5 22  1  0  0  0  0
  6 23  1  0  0  0  0
  6 24  1  0  0  0  0
  7 25  1  0  0  0  0
  7 26  1  0  0  0  0
  8 27  1  0  0  0  0
  8 28  1  0  0  0  0
  9 29  1  0  0  0  0
  9 30  1  0  0  0  0
 10 31  1  0  0  0  0
 10 32  1  0  0  0  0
 11 33  1  0  0  0  0
 12 34  1  0  0  0  0
 13 35  1  0  0  0  0
 13 36  1  0  0  0  0
 15 37  1  0  0  0  0
 15 38  1  0  0  0  0
 16 39  1  0  0  0  0
M  END
> <FRED Chemgauss4 score>
-8.004100

$$$$
C41047746	P88350758
  -OEChem-05122015073D

 19 20  0     1  0  0  0  0  0999 V2000
   53.7039  155.8551   -3.8014 C   0  0  0  0  0  0  0  0  0  0  0  0
   55.8047  153.4799   -5.0073 C   0  0  0  0  0  0  0  0  0  0  0  0
   55.4281  153.5943   -6.4580 C   0  0  0  0  0  0  0  0  0  0  0  0
   54.4661  154.0452   -5.3939 C   0  0  0  0  0  0  0  0  0  0  0  0
   54.1815  155.4949   -5.2053 C   0  0  1  0  0  0  0  0  0  0  0  0
   52.9905  156.9750   -2.1401 N   0  5  0  0  0  0  0  0  0  0  0  0
   53.3363  157.1009   -3.4459 N   0  0  0  0  0  0  0  0  0  0  0  0
   53.6109  154.9569   -2.8024 N   0  0  0  0  0  0  0  0  0  0  0  0
   53.1555  155.6870   -1.7534 N   0  0  0  0  0  0  0  0  0  0  0  0
   53.1966  155.9531   -6.2504 N   0  3  0  0  0  0  0  0  0  0  0  0
   55.8439  152.4880   -4.5743 H   0  0  0  0  0  0  0  0  0  0  0  0
   56.5499  154.1664   -4.6243 H   0  0  0  0  0  0  0  0  0  0  0  0
   55.9211  154.3574   -7.0478 H   0  0  0  0  0  0  0  0  0  0  0  0
   55.2149  152.6791   -6.9963 H   0  0  0  0  0  0  0  0  0  0  0  0
   53.5908  153.4323   -5.2152 H   0  0  0  0  0  0  0  0  0  0  0  0
   55.0849  156.0984   -5.4271 H   0  0  0  0  0  0  0  0  0  0  0  0
   53.6222  155.8936   -7.1724 H   0  0  0  0  0  0  0  0  0  0  0  0
   52.9266  156.9169   -6.0674 H   0  0  0  0  0  0  0  0  0  0  0  0
   52.3689  155.3621   -6.2242 H   0  0  0  0  0  0  0  0  0  0  0  0
  1  5  1  0  0  0  0
  1  7  2  0  0  0  0
  1  8  1  0  0  0  0
  2  3  1  0  0  0  0
  2  4  1  0  0  0  0
  3  4  1  0  0  0  0
  4  5  1  0  0  0  0
  5 10  1  0  0  0  0
  6  7  1  0  0  0  0
  6  9  1  0  0  0  0
  8  9  2  0  0  0  0
  2 11  1  0  0  0  0
  2 12  1  0  0  0  0
  3 13  1  0  0  0  0
  3 14  1  0  0  0  0
  4 15  1  0  0  0  0
  5 16  1  0  0  0  0
 10 17  1  0  0  0  0
 10 18  1  0  0  0  0
 10 19  1  0  0  0  0
M  CHG  2   6  -1  10   1
M  END
> <FRED Chemgauss4 score>
-8.000473

$$$$
C86456117	P135352603
  -OEChem-05122015073D

 32 32  0     0  0  0  0  0  0999 V2000
   54.1478  157.2942   -5.5231 C   0  0  0  0  0  0  0  0  0  0  0  0
   55.3376  157.3725   -4.8414 C   0  0  0  0  0  0  0  0  0  0  0  0
   54.9622  157.5900   -3.5022 C   0  0  0  0  0  0  0  0  0  0  0  0
   60.6056  162.0894   -3.1323 C   0  0  0  0  0  0  0  0  0  0  0  0
   56.6926  157.2517   -5.4089 C   0  0  0  0  0  0  0  0  0  0  0  0
   57.2901  161.3200   -1.7296 C   0  0  0  0  0  0  0  0  0  0  0  0
   58.3541  162.1253   -2.4598 C   0  0  0  0  0  0  0  0  0  0  0  0
   57.0457  159.9785   -2.3981 C   0  0  0  0  0  0  0  0  0  0  0  0
   53.6376  157.6465   -3.3406 N   0  0  0  0  0  0  0  0  0  0  0  0
   55.7911  157.7349   -2.4398 N   0  5  0  0  0  0  0  0  0  0  0  0
   53.1702  157.4634   -4.5872 N   0  0  0  0  0  0  0  0  0  0  0  0
   57.2839  158.5518   -5.8541 N   0  3  0  0  0  0  0  0  0  0  0  0
   56.4005  158.8633   -0.1968 O   0  0  0  0  0  0  0  0  0  0  0  0
   54.6288  159.8799   -1.5891 O   0  0  0  0  0  0  0  0  0  0  0  0
   59.5726  161.3947   -2.4463 O   0  0  0  0  0  0  0  0  0  0  0  0
   55.8273  159.0408   -1.5323 S   0  0  0  0  0  0  0  0  0  0  0  0
   53.9113  157.1364   -6.5658 H   0  0  0  0  0  0  0  0  0  0  0  0
   61.5250  161.4996   -3.1016 H   0  0  0  0  0  0  0  0  0  0  0  0
   60.7679  163.0616   -2.6602 H   0  0  0  0  0  0  0  0  0  0  0  0
   60.3047  162.2372   -4.1722 H   0  0  0  0  0  0  0  0  0  0  0  0
   57.4164  156.8303   -4.6880 H   0  0  0  0  0  0  0  0  0  0  0  0
   56.7207  156.5955   -6.2977 H   0  0  0  0  0  0  0  0  0  0  0  0
   57.5921  161.1755   -0.6845 H   0  0  0  0  0  0  0  0  0  0  0  0
   56.3587  161.8988   -1.6846 H   0  0  0  0  0  0  0  0  0  0  0  0
   58.5205  163.0891   -1.9682 H   0  0  0  0  0  0  0  0  0  0  0  0
   58.0651  162.3014   -3.5009 H   0  0  0  0  0  0  0  0  0  0  0  0
   57.9564  159.3727   -2.4197 H   0  0  0  0  0  0  0  0  0  0  0  0
   56.6812  160.1044   -3.4219 H   0  0  0  0  0  0  0  0  0  0  0  0
   52.1677  157.4638   -4.7281 H   0  0  0  0  0  0  0  0  0  0  0  0
   57.1174  159.2754   -5.1531 H   0  0  0  0  0  0  0  0  0  0  0  0
   56.8626  158.8487   -6.7359 H   0  0  0  0  0  0  0  0  0  0  0  0
   58.2914  158.4548   -5.9901 H   0  0  0  0  0  0  0  0  0  0  0  0
  1  2  2  0  0  0  0
  1 11  1  0  0  0  0
  2  3  1  0  0  0  0
  2  5  1  0  0  0  0
  3  9  2  0  0  0  0
  3 10  1  0  0  0  0
  4 15  1  0  0  0  0
  5 12  1  0  0  0  0
  6  7  1  0  0  0  0
  6  8  1  0  0  0  0
  7 15  1  0  0  0  0
  8 16  1  0  0  0  0
  9 11  1  0  0  0  0
 10 16  1  0  0  0  0
 13 16  2  0  0  0  0
 14 16  2  0  0  0  0
  1 17  1  0  0  0  0
  4 18  1  0  0  0  0
  4 19  1  0  0  0  0
  4 20  1  0  0  0  0
  5 21  1  0  0  0  0
  5 22  1  0  0  0  0
  6 23  1  0  0  0  0
  6 24  1  0  0  0  0
  7 25  1  0  0  0  0
  7 26  1  0  0  0  0
  8 27  1  0  0  0  0
  8 28  1  0  0  0  0
 11 29  1  0  0  0  0
 12 30  1  0  0  0  0
 12 31  1  0  0  0  0
 12 32  1  0  0  0  0
M  CHG  2  10  -1  12   1
M  END
> <FRED Chemgauss4 score>
-7.990534

$$$$
C86233004	P145216779
  -OEChem-05122015073D

 28 29  0     1  0  0  0  0  0999 V2000
   54.8196  153.8486   -6.0490 C   0  0  0  0  0  0  0  0  0  0  0  0
   56.8676  155.7011   -5.3881 C   0  0  0  0  0  0  0  0  0  0  0  0
   54.6526  154.7623   -5.0258 C   0  0  0  0  0  0  0  0  0  0  0  0
   55.6662  155.6646   -4.7098 C   0  0  0  0  0  0  0  0  0  0  0  0
   57.0431  154.7826   -6.4248 C   0  0  0  0  0  0  0  0  0  0  0  0
   56.0281  153.8643   -6.7526 C   0  0  0  0  0  0  0  0  0  0  0  0
   53.9677  156.1486   -3.2328 C   0  0  0  0  0  0  0  0  0  0  0  0
   53.4929  154.9736   -4.1027 C   0  0  1  0  0  0  0  0  0  0  0  0
   61.0372  156.7307   -7.8736 C   0  0  0  0  0  0  0  0  0  0  0  0
   59.7831  156.8641   -8.7250 C   0  0  0  0  0  0  0  0  0  0  0  0
   58.5333  156.5338   -7.9168 C   0  0  0  0  0  0  0  0  0  0  0  0
   55.2614  156.4757   -3.6550 N   0  0  0  0  0  0  0  0  0  0  0  0
   53.3125  156.6948   -2.3586 O   0  0  0  0  0  0  0  0  0  0  0  0
   52.3349  155.3343   -4.8156 O   0  0  0  0  0  0  0  0  0  0  0  0
   58.6092  154.8404   -7.2990 S   0  0  0  0  0  0  0  0  0  0  0  0
   56.2075  152.7082   -8.0306 Cl  0  0  0  0  0  0  0  0  0  0  0  0
   54.0295  153.1441   -6.2890 H   0  0  0  0  0  0  0  0  0  0  0  0
   57.6336  156.4200   -5.1158 H   0  0  0  0  0  0  0  0  0  0  0  0
   53.3177  154.0925   -3.4775 H   0  0  0  0  0  0  0  0  0  0  0  0
   60.9900  157.3885   -6.9998 H   0  0  0  0  0  0  0  0  0  0  0  0
   61.1461  155.7012   -7.5181 H   0  0  0  0  0  0  0  0  0  0  0  0
   61.9318  156.9876   -8.4499 H   0  0  0  0  0  0  0  0  0  0  0  0
   59.8698  156.1914   -9.5868 H   0  0  0  0  0  0  0  0  0  0  0  0
   59.7280  157.8888   -9.1121 H   0  0  0  0  0  0  0  0  0  0  0  0
   58.4358  157.2106   -7.0618 H   0  0  0  0  0  0  0  0  0  0  0  0
   57.6353  156.6373   -8.5342 H   0  0  0  0  0  0  0  0  0  0  0  0
   55.8292  157.2080   -3.2455 H   0  0  0  0  0  0  0  0  0  0  0  0
   51.6168  155.4581   -4.1676 H   0  0  0  0  0  0  0  0  0  0  0  0
  1  3  2  0  0  0  0
  1  6  1  0  0  0  0
  2  4  2  0  0  0  0
  2  5  1  0  0  0  0
  3  4  1  0  0  0  0
  3  8  1  0  0  0  0
  4 12  1  0  0  0  0
  5  6  2  0  0  0  0
  5 15  1  0  0  0  0
  6 16  1  0  0  0  0
  7  8  1  0  0  0  0
  7 12  1  0  0  0  0
  7 13  2  0  0  0  0
  8 14  1  0  0  0  0
  9 10  1  0  0  0  0
 10 11  1  0  0  0  0
 11 15  1  0  0  0  0
  1 17  1  0  0  0  0
  2 18  1  0  0  0  0
  8 19  1  0  0  0  0
  9 20  1  0  0  0  0
  9 21  1  0  0  0  0
  9 22  1  0  0  0  0
 10 23  1  0  0  0  0
 10 24  1  0  0  0  0
 11 25  1  0  0  0  0
 11 26  1  0  0  0  0
 12 27  1  0  0  0  0
 14 28  1  0  0  0  0
M  END
> <FRED Chemgauss4 score>
-7.988355

$$$$
C40710439	P61811697
  -OEChem-05122015073D

 26 27  0     1  0  0  0  0  0999 V2000
   59.5487  155.6494   -6.9206 C   0  0  0  0  0  0  0  0  0  0  0  0
   58.3932  154.8746   -6.7926 C   0  0  0  0  0  0  0  0  0  0  0  0
   58.3427  157.6388   -6.2491 C   0  0  0  0  0  0  0  0  0  0  0  0
   57.1607  156.8791   -6.1119 C   0  0  0  0  0  0  0  0  0  0  0  0
   59.5260  157.0137   -6.6529 C   0  0  0  0  0  0  0  0  0  0  0  0
   57.2081  155.5090   -6.3867 C   0  0  0  0  0  0  0  0  0  0  0  0
   55.0521  156.3751   -5.7036 C   0  0  0  0  0  0  0  0  0  0  0  0
   53.1736  155.6640   -4.1270 C   0  0  0  0  0  0  0  0  0  0  0  0
   53.9693  155.9623   -2.8604 C   0  0  0  0  0  0  0  0  0  0  0  0
   53.6271  156.5239   -5.3362 C   0  0  2  0  0  0  0  0  0  0  0  0
   55.9193  157.3602   -5.7222 N   0  0  0  0  0  0  0  0  0  0  0  0
   52.7487  156.2450   -6.4683 N   0  0  0  0  0  0  0  0  0  0  0  0
   53.5002  155.1176   -1.8172 O   0  0  0  0  0  0  0  0  0  0  0  0
   60.6475  157.7359   -6.7800 F   0  0  0  0  0  0  0  0  0  0  0  0
   55.6420  154.8306   -6.1422 S   0  0  0  0  0  0  0  0  0  0  0  0
   60.4767  155.1780   -7.2327 H   0  0  0  0  0  0  0  0  0  0  0  0
   58.4184  153.8096   -7.0021 H   0  0  0  0  0  0  0  0  0  0  0  0
   58.3363  158.7052   -6.0417 H   0  0  0  0  0  0  0  0  0  0  0  0
   52.1078  155.8275   -3.9151 H   0  0  0  0  0  0  0  0  0  0  0  0
   53.2496  154.5941   -4.3617 H   0  0  0  0  0  0  0  0  0  0  0  0
   55.0363  155.7674   -3.0032 H   0  0  0  0  0  0  0  0  0  0  0  0
   53.8337  157.0034   -2.5510 H   0  0  0  0  0  0  0  0  0  0  0  0
   53.3887  157.5765   -5.0789 H   0  0  0  0  0  0  0  0  0  0  0  0
   53.0497  156.5258   -7.3766 H   0  0  0  0  0  0  0  0  0  0  0  0
   51.8076  155.9758   -6.2772 H   0  0  0  0  0  0  0  0  0  0  0  0
   54.0239  155.3306   -1.0282 H   0  0  0  0  0  0  0  0  0  0  0  0
  1  2  1  0  0  0  0
  1  5  2  0  0  0  0
  2  6  2  0  0  0  0
  3  4  2  0  0  0  0
  3  5  1  0  0  0  0
  4  6  1  0  0  0  0
  4 11  1  0  0  0  0
  5 14  1  0  0  0  0
  6 15  1  0  0  0  0
  7 10  1  0  0  0  0
  7 11  2  0  0  0  0
  7 15  1  0  0  0  0
  8  9  1  0  0  0  0
  8 10  1  0  0  0  0
  9 13  1  0  0  0  0
 10 12  1  0  0  0  0
  1 16  1  0  0  0  0
  2 17  1  0  0  0  0
  3 18  1  0  0  0  0
  8 19  1  0  0  0  0
  8 20  1  0  0  0  0
  9 21  1  0  0  0  0
  9 22  1  0  0  0  0
 10 23  1  0  0  0  0
 12 24  1  0  0  0  0
 12 25  1  0  0  0  0
 13 26  1  0  0  0  0
M  END
> <FRED Chemgauss4 score>
-7.978470

$$$$
C95922757	P151023630
  -OEChem-05122015073D

 17 17  0     0  0  0  0  0  0999 V2000
   55.6644  156.3722   -4.5078 C   0  0  0  0  0  0  0  0  0  0  0  0
   54.0505  156.0586   -6.2584 C   0  0  0  0  0  0  0  0  0  0  0  0
   55.2942  156.4188   -5.9086 C   0  0  0  0  0  0  0  0  0  0  0  0
   54.7958  155.9794   -3.5646 C   0  0  0  0  0  0  0  0  0  0  0  0
   53.4096  155.5784   -3.9621 C   0  0  0  0  0  0  0  0  0  0  0  0
   56.3289  156.8695   -6.8899 C   0  0  0  0  0  0  0  0  0  0  0  0
   53.1368  155.6516   -5.3185 N   0  0  0  0  0  0  0  0  0  0  0  0
   52.5939  155.2141   -3.1188 O   0  0  0  0  0  0  0  0  0  0  0  0
   55.1457  155.9346   -2.2338 O   0  0  0  0  0  0  0  0  0  0  0  0
   56.7512  158.1848   -6.5753 O   0  0  0  0  0  0  0  0  0  0  0  0
   56.6736  156.6661   -4.2358 H   0  0  0  0  0  0  0  0  0  0  0  0
   53.6968  156.0660   -7.2822 H   0  0  0  0  0  0  0  0  0  0  0  0
   55.9213  156.8578   -7.9012 H   0  0  0  0  0  0  0  0  0  0  0  0
   57.1916  156.2047   -6.8440 H   0  0  0  0  0  0  0  0  0  0  0  0
   52.2078  155.3893   -5.6353 H   0  0  0  0  0  0  0  0  0  0  0  0
   54.3986  155.6305   -1.7065 H   0  0  0  0  0  0  0  0  0  0  0  0
   57.4197  158.4346   -7.2354 H   0  0  0  0  0  0  0  0  0  0  0  0
  1  3  1  0  0  0  0
  1  4  2  0  0  0  0
  2  3  2  0  0  0  0
  2  7  1  0  0  0  0
  3  6  1  0  0  0  0
  4  5  1  0  0  0  0
  4  9  1  0  0  0  0
  5  7  1  0  0  0  0
  5  8  2  0  0  0  0
  6 10  1  0  0  0  0
  1 11  1  0  0  0  0
  2 12  1  0  0  0  0
  6 13  1  0  0  0  0
  6 14  1  0  0  0  0
  7 15  1  0  0  0  0
  9 16  1  0  0  0  0
 10 17  1  0  0  0  0
M  END
> <FRED Chemgauss4 score>
-7.977650

$$$$
C26899001	P39653911
  -OEChem-05122015073D

 16 16  0     0  0  0  0  0  0999 V2000
   56.0007  156.4401   -5.3647 C   0  0  0  0  0  0  0  0  0  0  0  0
   56.1259  158.4349   -4.1559 C   0  0  0  0  0  0  0  0  0  0  0  0
   58.0053  157.2737   -4.6910 C   0  0  0  0  0  0  0  0  0  0  0  0
   55.3313  157.4994   -4.7865 C   0  0  0  0  0  0  0  0  0  0  0  0
   53.8974  157.6220   -4.8402 C   0  0  0  0  0  0  0  0  0  0  0  0
   57.3418  156.2952   -5.3359 N   0  0  0  0  0  0  0  0  0  0  0  0
   57.4709  158.3531   -4.0886 N   0  0  0  0  0  0  0  0  0  0  0  0
   53.1398  157.0751   -3.8620 N   0  0  0  0  0  0  0  0  0  0  0  0
   53.3191  158.2807   -5.8685 N   0  3  0  0  0  0  0  0  0  0  0  0
   53.6356  156.3465   -2.7483 O   0  5  0  0  0  0  0  0  0  0  0  0
   55.4676  155.6508   -5.8855 H   0  0  0  0  0  0  0  0  0  0  0  0
   55.6970  159.3054   -3.6694 H   0  0  0  0  0  0  0  0  0  0  0  0
   59.0838  157.1824   -4.6518 H   0  0  0  0  0  0  0  0  0  0  0  0
   52.1294  157.1552   -3.8895 H   0  0  0  0  0  0  0  0  0  0  0  0
   53.8717  158.6998   -6.6084 H   0  0  0  0  0  0  0  0  0  0  0  0
   52.3107  158.3767   -5.9128 H   0  0  0  0  0  0  0  0  0  0  0  0
  1  4  1  0  0  0  0
  1  6  2  0  0  0  0
  2  4  2  0  0  0  0
  2  7  1  0  0  0  0
  3  6  1  0  0  0  0
  3  7  2  0  0  0  0
  4  5  1  0  0  0  0
  5  8  1  0  0  0  0
  5  9  2  0  0  0  0
  8 10  1  0  0  0  0
  1 11  1  0  0  0  0
  2 12  1  0  0  0  0
  3 13  1  0  0  0  0
  8 14  1  0  0  0  0
  9 15  1  0  0  0  0
  9 16  1  0  0  0  0
M  CHG  2   9   1  10  -1
M  END
> <FRED Chemgauss4 score>
-7.974036

$$$$
C50649018	P75778015
  -OEChem-05122015073D

 33 34  0     0  0  0  0  0  0999 V2000
   59.6486  154.8409   -6.7649 C   0  0  0  0  0  0  0  0  0  0  0  0
   59.4062  153.7168   -7.5487 C   0  0  0  0  0  0  0  0  0  0  0  0
   58.5952  155.4665   -6.1050 C   0  0  0  0  0  0  0  0  0  0  0  0
   56.1056  158.2341   -2.9041 C   0  0  0  0  0  0  0  0  0  0  0  0
   55.3949  160.2927   -3.8600 C   0  0  0  0  0  0  0  0  0  0  0  0
   58.1062  153.2430   -7.6537 C   0  0  0  0  0  0  0  0  0  0  0  0
   55.0753  157.5966   -3.5865 C   0  0  0  0  0  0  0  0  0  0  0  0
   56.2752  159.6076   -3.0381 C   0  0  0  0  0  0  0  0  0  0  0  0
   57.3157  154.9485   -6.2466 C   0  0  0  0  0  0  0  0  0  0  0  0
   54.2486  158.3717   -4.3837 C   0  0  0  0  0  0  0  0  0  0  0  0
   53.0892  157.7599   -6.5067 C   0  0  0  0  0  0  0  0  0  0  0  0
   56.1392  155.5592   -5.5766 C   0  0  0  0  0  0  0  0  0  0  0  0
   54.3824  159.7080   -4.5387 N   0  0  0  0  0  0  0  0  0  0  0  0
   56.1153  155.1815   -4.1643 N   0  5  0  0  0  0  0  0  0  0  0  0
   57.1104  153.8648   -7.0075 N   0  3  0  0  0  0  0  0  0  0  0  0
   53.1950  157.7339   -5.0841 N   0  0  0  0  0  0  0  0  0  0  0  0
   53.5692  155.5813   -4.0341 O   0  0  0  0  0  0  0  0  0  0  0  0
   54.8668  155.6425   -1.9534 O   0  0  0  0  0  0  0  0  0  0  0  0
   54.8664  155.8162   -3.4042 S   0  0  0  0  0  0  0  0  0  0  0  0
   57.6582  160.5087   -2.1316 Br  0  0  0  0  0  0  0  0  0  0  0  0
   60.6586  155.2281   -6.6675 H   0  0  0  0  0  0  0  0  0  0  0  0
   60.2184  153.2201   -8.0683 H   0  0  0  0  0  0  0  0  0  0  0  0
   58.7801  156.3433   -5.4921 H   0  0  0  0  0  0  0  0  0  0  0  0
   56.7741  157.6576   -2.2691 H   0  0  0  0  0  0  0  0  0  0  0  0
   55.4729  161.3656   -4.0078 H   0  0  0  0  0  0  0  0  0  0  0  0
   57.8258  152.3778   -8.2383 H   0  0  0  0  0  0  0  0  0  0  0  0
   53.9202  158.3265   -6.9349 H   0  0  0  0  0  0  0  0  0  0  0  0
   52.1497  158.2317   -6.8072 H   0  0  0  0  0  0  0  0  0  0  0  0
   53.1140  156.7426   -6.9062 H   0  0  0  0  0  0  0  0  0  0  0  0
   56.1522  156.6584   -5.6872 H   0  0  0  0  0  0  0  0  0  0  0  0
   55.2058  155.2424   -6.0751 H   0  0  0  0  0  0  0  0  0  0  0  0
   56.1642  153.4960   -7.1016 H   0  0  0  0  0  0  0  0  0  0  0  0
   52.5138  157.2559   -4.5303 H   0  0  0  0  0  0  0  0  0  0  0  0
  1  2  1  0  0  0  0
  1  3  2  0  0  0  0
  2  6  2  0  0  0  0
  3  9  1  0  0  0  0
  4  7  2  0  0  0  0
  4  8  1  0  0  0  0
  5  8  2  0  0  0  0
  5 13  1  0  0  0  0
  6 15  1  0  0  0  0
  7 10  1  0  0  0  0
  7 19  1  0  0  0  0
  8 20  1  0  0  0  0
  9 12  1  0  0  0  0
  9 15  2  0  0  0  0
 10 13  2  0  0  0  0
 10 16  1  0  0  0  0
 11 16  1  0  0  0  0
 12 14  1  0  0  0  0
 14 19  1  0  0  0  0
 17 19  2  0  0  0  0
 18 19  2  0  0  0  0
  1 21  1  0  0  0  0
  2 22  1  0  0  0  0
  3 23  1  0  0  0  0
  4 24  1  0  0  0  0
  5 25  1  0  0  0  0
  6 26  1  0  0  0  0
 11 27  1  0  0  0  0
 11 28  1  0  0  0  0
 11 29  1  0  0  0  0
 12 30  1  0  0  0  0
 12 31  1  0  0  0  0
 15 32  1  0  0  0  0
 16 33  1  0  0  0  0
M  CHG  2  14  -1  15   1
M  END
> <FRED Chemgauss4 score>
-7.971652

$$$$
C36873883	P54807718
  -OEChem-05122015073D

 42 44  0     1  0  0  0  0  0999 V2000
   57.7041  153.7706   -7.1286 C   0  0  0  0  0  0  0  0  0  0  0  0
   59.0471  153.5595   -7.4395 C   0  0  0  0  0  0  0  0  0  0  0  0
   58.0890  156.1524   -7.1025 C   0  0  0  0  0  0  0  0  0  0  0  0
   54.8103  154.4629   -6.9592 C   0  0  0  0  0  0  0  0  0  0  0  0
   57.2274  155.0664   -6.9497 C   0  0  0  0  0  0  0  0  0  0  0  0
   59.9235  154.6431   -7.5688 C   0  0  0  0  0  0  0  0  0  0  0  0
   59.4321  155.9496   -7.4402 C   0  0  0  0  0  0  0  0  0  0  0  0
   55.8523  155.2839   -6.5977 C   0  0  0  0  0  0  0  0  0  0  0  0
   54.1097  156.1737   -5.7595 C   0  0  0  0  0  0  0  0  0  0  0  0
   62.4459  156.3954   -8.0887 C   0  0  0  0  0  0  0  0  0  0  0  0
   62.1849  155.1724   -7.2229 C   0  0  0  0  0  0  0  0  0  0  0  0
   61.1608  157.0037   -8.6287 C   0  0  0  0  0  0  0  0  0  0  0  0
   55.1459  159.1512   -2.4147 C   0  0  0  0  0  0  0  0  0  0  0  0
   54.4908  157.9259   -3.0332 C   0  0  0  0  0  0  0  0  0  0  0  0
   53.8155  158.2653   -4.3659 C   0  0  0  0  0  0  0  0  0  0  0  0
   53.1488  157.0444   -5.0572 C   0  0  2  0  0  0  0  0  0  0  0  0
   55.4096  156.3469   -5.8508 N   0  0  0  0  0  0  0  0  0  0  0  0
   53.7006  155.0455   -6.4147 N   0  0  0  0  0  0  0  0  0  0  0  0
   52.3773  156.2705   -4.0918 N   0  0  0  0  0  0  0  0  0  0  0  0
   61.2274  154.3058   -7.8311 O   0  0  0  0  0  0  0  0  0  0  0  0
   60.1672  157.0960   -7.6079 O   0  0  0  0  0  0  0  0  0  0  0  0
   57.0407  152.9136   -7.0381 H   0  0  0  0  0  0  0  0  0  0  0  0
   59.4022  152.5448   -7.6027 H   0  0  0  0  0  0  0  0  0  0  0  0
   57.7256  157.1657   -6.9388 H   0  0  0  0  0  0  0  0  0  0  0  0
   54.7520  153.5483   -7.5330 H   0  0  0  0  0  0  0  0  0  0  0  0
   62.9770  157.1615   -7.5125 H   0  0  0  0  0  0  0  0  0  0  0  0
   63.1021  156.1007   -8.9155 H   0  0  0  0  0  0  0  0  0  0  0  0
   63.1134  154.6335   -6.9883 H   0  0  0  0  0  0  0  0  0  0  0  0
   61.7714  155.4948   -6.2607 H   0  0  0  0  0  0  0  0  0  0  0  0
   61.3382  157.9812   -9.0976 H   0  0  0  0  0  0  0  0  0  0  0  0
   60.7612  156.3571   -9.4181 H   0  0  0  0  0  0  0  0  0  0  0  0
   54.4129  159.9478   -2.2521 H   0  0  0  0  0  0  0  0  0  0  0  0
   55.6072  158.9063   -1.4527 H   0  0  0  0  0  0  0  0  0  0  0  0
   55.9268  159.5381   -3.0768 H   0  0  0  0  0  0  0  0  0  0  0  0
   55.2528  157.1523   -3.1807 H   0  0  0  0  0  0  0  0  0  0  0  0
   53.7497  157.5237   -2.3326 H   0  0  0  0  0  0  0  0  0  0  0  0
   53.0453  159.0276   -4.1886 H   0  0  0  0  0  0  0  0  0  0  0  0
   54.5573  158.7162   -5.0379 H   0  0  0  0  0  0  0  0  0  0  0  0
   52.3799  157.4484   -5.7510 H   0  0  0  0  0  0  0  0  0  0  0  0
   52.7516  154.7029   -6.4849 H   0  0  0  0  0  0  0  0  0  0  0  0
   52.1228  155.3361   -4.3325 H   0  0  0  0  0  0  0  0  0  0  0  0
   51.9598  156.7549   -3.3255 H   0  0  0  0  0  0  0  0  0  0  0  0
  1  2  2  0  0  0  0
  1  5  1  0  0  0  0
  2  6  1  0  0  0  0
  3  5  2  0  0  0  0
  3  7  1  0  0  0  0
  4  8  2  0  0  0  0
  4 18  1  0  0  0  0
  5  8  1  0  0  0  0
  6  7  2  0  0  0  0
  6 20  1  0  0  0  0
  7 21  1  0  0  0  0
  8 17  1  0  0  0  0
  9 16  1  0  0  0  0
  9 17  2  0  0  0  0
  9 18  1  0  0  0  0
 10 11  1  0  0  0  0
 10 12  1  0  0  0  0
 11 20  1  0  0  0  0
 12 21  1  0  0  0  0
 13 14  1  0  0  0  0
 14 15  1  0  0  0  0
 15 16  1  0  0  0  0
 16 19  1  0  0  0  0
  1 22  1  0  0  0  0
  2 23  1  0  0  0  0
  3 24  1  0  0  0  0
  4 25  1  0  0  0  0
 10 26  1  0  0  0  0
 10 27  1  0  0  0  0
 11 28  1  0  0  0  0
 11 29  1  0  0  0  0
 12 30  1  0  0  0  0
 12 31  1  0  0  0  0
 13 32  1  0  0  0  0
 13 33  1  0  0  0  0
 13 34  1  0  0  0  0
 14 35  1  0  0  0  0
 14 36  1  0  0  0  0
 15 37  1  0  0  0  0
 15 38  1  0  0  0  0
 16 39  1  0  0  0  0
 18 40  1  0  0  0  0
 19 41  1  0  0  0  0
 19 42  1  0  0  0  0
M  END
> <FRED Chemgauss4 score>
-7.966606

$$$$
C31369265	P118184606
  -OEChem-05122015073D

 49 51  0     1  0  0  0  0  0999 V2000
   61.0756  162.2897   -4.0232 C   0  0  0  0  0  0  0  0  0  0  0  0
   60.8950  163.0849   -5.1355 C   0  0  0  0  0  0  0  0  0  0  0  0
   59.8909  162.1939   -3.2333 C   0  0  0  0  0  0  0  0  0  0  0  0
   58.8632  162.9312   -3.7848 C   0  0  0  0  0  0  0  0  0  0  0  0
   55.7334  156.7599   -3.9654 C   0  0  0  0  0  0  0  0  0  0  0  0
   56.0434  156.4280   -5.2382 C   0  0  0  0  0  0  0  0  0  0  0  0
   54.2836  156.8841   -3.6128 C   0  0  0  0  0  0  0  0  0  0  0  0
   53.8661  156.2858   -5.9099 C   0  0  0  0  0  0  0  0  0  0  0  0
   56.5473  158.4211   -2.3602 C   0  0  0  0  0  0  0  0  0  0  0  0
   59.7241  161.4393   -1.9485 C   0  0  0  0  0  0  0  0  0  0  0  0
   57.4911  163.0051   -3.2006 C   0  0  0  0  0  0  0  0  0  0  0  0
   57.5011  162.4452   -1.7643 C   0  0  0  0  0  0  0  0  0  0  0  0
   57.4636  156.3094   -5.7270 C   0  0  0  0  0  0  0  0  0  0  0  0
   52.7996  156.0364   -6.9365 C   0  0  0  0  0  0  0  0  0  0  0  0
   58.2667  161.6191    0.7223 C   0  0  0  0  0  0  0  0  0  0  0  0
   56.6905  156.9934   -2.8509 C   0  0  0  0  0  0  0  0  0  0  0  0
   56.7821  159.8265   -0.3204 C   0  0  0  0  0  0  0  0  0  0  0  0
   58.1197  160.5680   -0.3734 C   0  0  1  0  0  0  0  0  0  0  0  0
   55.1156  156.1833   -6.2301 N   0  0  0  0  0  0  0  0  0  0  0  0
   53.4203  156.6229   -4.6553 N   0  0  0  0  0  0  0  0  0  0  0  0
   58.2880  161.1967   -1.6836 N   0  0  2  0  0  0  0  0  0  0  0  0
   56.8438  158.5602   -1.0139 N   0  0  0  0  0  0  0  0  0  0  0  0
   53.9137  157.1966   -2.4845 O   0  0  0  0  0  0  0  0  0  0  0  0
   56.2046  159.3353   -3.1081 O   0  0  0  0  0  0  0  0  0  0  0  0
   59.3037  163.7154   -5.2251 S   0  0  0  0  0  0  0  0  0  0  0  0
   62.0125  161.7993   -3.7917 H   0  0  0  0  0  0  0  0  0  0  0  0
   61.6205  163.3240   -5.9001 H   0  0  0  0  0  0  0  0  0  0  0  0
   60.2779  160.4940   -2.0187 H   0  0  0  0  0  0  0  0  0  0  0  0
   60.1527  162.0265   -1.1277 H   0  0  0  0  0  0  0  0  0  0  0  0
   57.1680  164.0537   -3.1818 H   0  0  0  0  0  0  0  0  0  0  0  0
   56.7727  162.4427   -3.8076 H   0  0  0  0  0  0  0  0  0  0  0  0
   57.9301  163.2119   -1.1074 H   0  0  0  0  0  0  0  0  0  0  0  0
   56.4713  162.2684   -1.4246 H   0  0  0  0  0  0  0  0  0  0  0  0
   57.8060  155.2897   -5.5823 H   0  0  0  0  0  0  0  0  0  0  0  0
   58.0923  156.9939   -5.1658 H   0  0  0  0  0  0  0  0  0  0  0  0
   57.5002  156.5660   -6.7813 H   0  0  0  0  0  0  0  0  0  0  0  0
   52.5272  154.9839   -6.9266 H   0  0  0  0  0  0  0  0  0  0  0  0
   53.1738  156.3080   -7.9209 H   0  0  0  0  0  0  0  0  0  0  0  0
   51.9266  156.6424   -6.7059 H   0  0  0  0  0  0  0  0  0  0  0  0
   57.4917  162.3905    0.6559 H   0  0  0  0  0  0  0  0  0  0  0  0
   58.1789  161.1572    1.7120 H   0  0  0  0  0  0  0  0  0  0  0  0
   59.2443  162.1087    0.6641 H   0  0  0  0  0  0  0  0  0  0  0  0
   57.7199  156.8589   -3.1982 H   0  0  0  0  0  0  0  0  0  0  0  0
   56.5062  156.2685   -2.0528 H   0  0  0  0  0  0  0  0  0  0  0  0
   55.9956  160.4374   -0.7777 H   0  0  0  0  0  0  0  0  0  0  0  0
   56.4924  159.6485    0.7209 H   0  0  0  0  0  0  0  0  0  0  0  0
   58.9226  159.8320   -0.2474 H   0  0  0  0  0  0  0  0  0  0  0  0
   52.4197  156.6817   -4.4898 H   0  0  0  0  0  0  0  0  0  0  0  0
   57.1171  157.7342   -0.4904 H   0  0  0  0  0  0  0  0  0  0  0  0
  1  2  2  0  0  0  0
  1  3  1  0  0  0  0
  2 25  1  0  0  0  0
  3  4  2  0  0  0  0
  3 10  1  0  0  0  0
  4 11  1  0  0  0  0
  4 25  1  0  0  0  0
  5  6  2  0  0  0  0
  5  7  1  0  0  0  0
  5 16  1  0  0  0  0
  6 13  1  0  0  0  0
  6 19  1  0  0  0  0
  7 20  1  0  0  0  0
  7 23  2  0  0  0  0
  8 14  1  0  0  0  0
  8 19  2  0  0  0  0
  8 20  1  0  0  0  0
  9 16  1  0  0  0  0
  9 22  1  0  0  0  0
  9 24  2  0  0  0  0
 10 21  1  0  0  0  0
 11 12  1  0  0  0  0
 12 21  1  0  0  0  0
 15 18  1  0  0  0  0
 17 18  1  0  0  0  0
 17 22  1  0  0  0  0
 18 21  1  0  0  0  0
  1 26  1  0  0  0  0
  2 27  1  0  0  0  0
 10 28  1  0  0  0  0
 10 29  1  0  0  0  0
 11 30  1  0  0  0  0
 11 31  1  0  0  0  0
 12 32  1  0  0  0  0
 12 33  1  0  0  0  0
 13 34  1  0  0  0  0
 13 35  1  0  0  0  0
 13 36  1  0  0  0  0
 14 37  1  0  0  0  0
 14 38  1  0  0  0  0
 14 39  1  0  0  0  0
 15 40  1  0  0  0  0
 15 41  1  0  0  0  0
 15 42  1  0  0  0  0
 16 43  1  0  0  0  0
 16 44  1  0  0  0  0
 17 45  1  0  0  0  0
 17 46  1  0  0  0  0
 18 47  1  0  0  0  0
 20 48  1  0  0  0  0
 22 49  1  0  0  0  0
M  END
> <FRED Chemgauss4 score>
-7.951159

$$$$
C42920684	P64883577
  -OEChem-05122015073D

 19 19  0     1  0  0  0  0  0999 V2000
   54.7009  157.0441   -3.4589 C   0  0  0  0  0  0  0  0  0  0  0  0
   53.4065  156.3386   -3.8794 C   0  0  0  0  0  0  0  0  0  0  0  0
   54.3584  156.5403   -6.1364 C   0  0  0  0  0  0  0  0  0  0  0  0
   55.6928  156.2654   -5.4609 C   0  0  1  0  0  0  0  0  0  0  0  0
   56.8533  156.7178   -6.3376 C   0  0  0  0  0  0  0  0  0  0  0  0
   55.7606  157.0023   -4.1945 N   0  0  0  0  0  0  0  0  0  0  0  0
   53.2994  156.1452   -5.2417 N   0  0  0  0  0  0  0  0  0  0  0  0
   56.9926  158.1853   -6.2261 N   0  3  0  0  0  0  0  0  0  0  0  0
   54.4732  157.6067   -2.3757 O   0  5  0  0  0  0  0  0  0  0  0  0
   52.5716  155.9718   -3.0636 O   0  0  0  0  0  0  0  0  0  0  0  0
   54.2231  157.6047   -6.3596 H   0  0  0  0  0  0  0  0  0  0  0  0
   54.2504  155.9695   -7.0638 H   0  0  0  0  0  0  0  0  0  0  0  0
   55.8065  155.1935   -5.2534 H   0  0  0  0  0  0  0  0  0  0  0  0
   56.6698  156.4845   -7.3862 H   0  0  0  0  0  0  0  0  0  0  0  0
   57.7924  156.2733   -6.0088 H   0  0  0  0  0  0  0  0  0  0  0  0
   52.4602  155.7171   -5.6204 H   0  0  0  0  0  0  0  0  0  0  0  0
   57.5615  158.5645   -6.9930 H   0  0  0  0  0  0  0  0  0  0  0  0
   57.4453  158.4495   -5.3421 H   0  0  0  0  0  0  0  0  0  0  0  0
   56.0765  158.6496   -6.2582 H   0  0  0  0  0  0  0  0  0  0  0  0
  1  2  1  0  0  0  0
  1  6  2  0  0  0  0
  1  9  1  0  0  0  0
  2  7  1  0  0  0  0
  2 10  2  0  0  0  0
  3  4  1  0  0  0  0
  3  7  1  0  0  0  0
  4  5  1  0  0  0  0
  4  6  1  0  0  0  0
  5  8  1  0  0  0  0
  3 11  1  0  0  0  0
  3 12  1  0  0  0  0
  4 13  1  0  0  0  0
  5 14  1  0  0  0  0
  5 15  1  0  0  0  0
  7 16  1  0  0  0  0
  8 17  1  0  0  0  0
  8 18  1  0  0  0  0
  8 19  1  0  0  0  0
M  CHG  2   8   1   9  -1
M  END
> <FRED Chemgauss4 score>
-7.947536

$$$$
C70550714	P108825876
  -OEChem-05122015073D

 44 45  0     0  0  0  0  0  0999 V2000
   56.4054  156.8005   -4.8226 C   0  0  0  0  0  0  0  0  0  0  0  0
   55.5273  158.1210   -3.0501 C   0  0  0  0  0  0  0  0  0  0  0  0
   56.5592  157.8620   -3.9378 C   0  0  0  0  0  0  0  0  0  0  0  0
   55.2410  156.0411   -4.7930 C   0  0  0  0  0  0  0  0  0  0  0  0
   54.2683  156.3815   -3.8669 C   0  0  0  0  0  0  0  0  0  0  0  0
   57.7907  158.6928   -3.9436 C   0  0  0  0  0  0  0  0  0  0  0  0
   56.5898  163.3177   -1.4212 C   0  0  0  0  0  0  0  0  0  0  0  0
   57.0146  164.5639   -3.5761 C   0  0  0  0  0  0  0  0  0  0  0  0
   57.7653  162.3908   -1.7256 C   0  0  0  0  0  0  0  0  0  0  0  0
   58.1903  163.6371   -3.8802 C   0  0  0  0  0  0  0  0  0  0  0  0
   56.7731  164.6969   -2.0672 C   0  0  0  0  0  0  0  0  0  0  0  0
   58.0065  162.2579   -3.2347 C   0  0  0  0  0  0  0  0  0  0  0  0
   55.5626  165.5869   -1.7915 C   0  0  0  0  0  0  0  0  0  0  0  0
   59.2162  161.3672   -3.5114 C   0  0  0  0  0  0  0  0  0  0  0  0
   59.2709  160.1554   -2.5923 C   0  0  0  0  0  0  0  0  0  0  0  0
   54.3817  157.4056   -2.9916 N   0  0  0  0  0  0  0  0  0  0  0  0
   52.5490  155.1795   -2.6333 N   0  0  0  0  0  0  0  0  0  0  0  0
   53.0747  155.6190   -3.8217 N   0  0  0  0  0  0  0  0  0  0  0  0
   58.1240  159.3027   -2.7394 N   0  0  0  0  0  0  0  0  0  0  0  0
   58.4271  158.8151   -4.9870 O   0  0  0  0  0  0  0  0  0  0  0  0
   55.0663  154.7291   -5.8962 Cl  0  0  0  0  0  0  0  0  0  0  0  0
   57.1962  156.5696   -5.5329 H   0  0  0  0  0  0  0  0  0  0  0  0
   55.5892  158.9362   -2.3355 H   0  0  0  0  0  0  0  0  0  0  0  0
   55.6626  162.8553   -1.7837 H   0  0  0  0  0  0  0  0  0  0  0  0
   56.4870  163.4248   -0.3348 H   0  0  0  0  0  0  0  0  0  0  0  0
   57.2117  165.5510   -4.0111 H   0  0  0  0  0  0  0  0  0  0  0  0
   56.1129  164.1753   -4.0667 H   0  0  0  0  0  0  0  0  0  0  0  0
   58.6673  162.7794   -1.2357 H   0  0  0  0  0  0  0  0  0  0  0  0
   57.5685  161.4038   -1.2903 H   0  0  0  0  0  0  0  0  0  0  0  0
   58.2934  163.5302   -4.9668 H   0  0  0  0  0  0  0  0  0  0  0  0
   59.1172  164.0997   -3.5177 H   0  0  0  0  0  0  0  0  0  0  0  0
   57.6530  165.1757   -1.6172 H   0  0  0  0  0  0  0  0  0  0  0  0
   57.1261  161.7801   -3.6849 H   0  0  0  0  0  0  0  0  0  0  0  0
   54.6697  165.1402   -2.2256 H   0  0  0  0  0  0  0  0  0  0  0  0
   55.7197  166.5701   -2.2318 H   0  0  0  0  0  0  0  0  0  0  0  0
   55.4214  165.6952   -0.7174 H   0  0  0  0  0  0  0  0  0  0  0  0
   60.1229  161.9639   -3.3713 H   0  0  0  0  0  0  0  0  0  0  0  0
   59.1905  161.0495   -4.5586 H   0  0  0  0  0  0  0  0  0  0  0  0
   60.1518  159.5502   -2.8284 H   0  0  0  0  0  0  0  0  0  0  0  0
   59.3342  160.4539   -1.5412 H   0  0  0  0  0  0  0  0  0  0  0  0
   52.2581  154.2107   -2.7557 H   0  0  0  0  0  0  0  0  0  0  0  0
   51.6979  155.7064   -2.4412 H   0  0  0  0  0  0  0  0  0  0  0  0
   52.5080  155.5867   -4.6534 H   0  0  0  0  0  0  0  0  0  0  0  0
   57.5076  159.2009   -1.9347 H   0  0  0  0  0  0  0  0  0  0  0  0
  1  3  1  0  0  0  0
  1  4  2  0  0  0  0
  2  3  2  0  0  0  0
  2 16  1  0  0  0  0
  3  6  1  0  0  0  0
  4  5  1  0  0  0  0
  4 21  1  0  0  0  0
  5 16  2  0  0  0  0
  5 18  1  0  0  0  0
  6 19  1  0  0  0  0
  6 20  2  0  0  0  0
  7  9  1  0  0  0  0
  7 11  1  0  0  0  0
  8 10  1  0  0  0  0
  8 11  1  0  0  0  0
  9 12  1  0  0  0  0
 10 12  1  0  0  0  0
 11 13  1  0  0  0  0
 12 14  1  0  0  0  0
 14 15  1  0  0  0  0
 15 19  1  0  0  0  0
 17 18  1  0  0  0  0
  1 22  1  0  0  0  0
  2 23  1  0  0  0  0
  7 24  1  0  0  0  0
  7 25  1  0  0  0  0
  8 26  1  0  0  0  0
  8 27  1  0  0  0  0
  9 28  1  0  0  0  0
  9 29  1  0  0  0  0
 10 30  1  0  0  0  0
 10 31  1  0  0  0  0
 11 32  1  0  0  0  0
 12 33  1  0  0  0  0
 13 34  1  0  0  0  0
 13 35  1  0  0  0  0
 13 36  1  0  0  0  0
 14 37  1  0  0  0  0
 14 38  1  0  0  0  0
 15 39  1  0  0  0  0
 15 40  1  0  0  0  0
 17 41  1  0  0  0  0
 17 42  1  0  0  0  0
 18 43  1  0  0  0  0
 19 44  1  0  0  0  0
M  END
> <FRED Chemgauss4 score>
-7.947100

$$$$
C82471512	P128883647
  -OEChem-05122015073D

 28 28  0     0  0  0  0  0  0999 V2000
   54.6242  154.4139   -6.5786 C   0  0  0  0  0  0  0  0  0  0  0  0
   55.9101  155.2547   -5.0055 C   0  0  0  0  0  0  0  0  0  0  0  0
   54.6065  155.2387   -5.4378 C   0  0  0  0  0  0  0  0  0  0  0  0
   53.5106  155.9279   -4.8293 C   0  0  0  0  0  0  0  0  0  0  0  0
   59.6420  156.3417   -8.7154 C   0  0  0  0  0  0  0  0  0  0  0  0
   58.8442  156.0068   -7.4663 C   0  0  0  0  0  0  0  0  0  0  0  0
   58.8282  154.5150   -7.1263 C   0  0  0  0  0  0  0  0  0  0  0  0
   58.0787  154.1657   -5.8330 C   0  0  0  0  0  0  0  0  0  0  0  0
   55.8425  153.9405   -6.8538 N   0  0  0  0  0  0  0  0  0  0  0  0
   56.6024  154.4695   -5.8798 N   0  0  0  0  0  0  0  0  0  0  0  0
   52.2372  155.8055   -5.4056 N   0  0  0  0  0  0  0  0  0  0  0  0
   61.8267  156.9621   -9.4350 N   0  0  0  0  0  0  0  0  0  0  0  0
   60.9678  156.6058   -8.4158 N   0  0  0  0  0  0  0  0  0  0  0  0
   53.6525  156.6490   -3.8106 O   0  0  0  0  0  0  0  0  0  0  0  0
   59.1412  156.3956   -9.8359 O   0  0  0  0  0  0  0  0  0  0  0  0
   53.8020  154.1377   -7.2237 H   0  0  0  0  0  0  0  0  0  0  0  0
   56.3935  155.7469   -4.1722 H   0  0  0  0  0  0  0  0  0  0  0  0
   57.8142  156.3362   -7.6520 H   0  0  0  0  0  0  0  0  0  0  0  0
   59.2190  156.5931   -6.6202 H   0  0  0  0  0  0  0  0  0  0  0  0
   58.3796  153.9727   -7.9678 H   0  0  0  0  0  0  0  0  0  0  0  0
   59.8594  154.1510   -7.0375 H   0  0  0  0  0  0  0  0  0  0  0  0
   58.5387  154.6741   -4.9774 H   0  0  0  0  0  0  0  0  0  0  0  0
   58.1996  153.0930   -5.6324 H   0  0  0  0  0  0  0  0  0  0  0  0
   52.1289  155.2330   -6.2358 H   0  0  0  0  0  0  0  0  0  0  0  0
   51.4207  156.2695   -5.0210 H   0  0  0  0  0  0  0  0  0  0  0  0
   62.5001  157.6169   -9.0393 H   0  0  0  0  0  0  0  0  0  0  0  0
   61.2796  157.4947  -10.1103 H   0  0  0  0  0  0  0  0  0  0  0  0
   61.3029  156.5383   -7.4599 H   0  0  0  0  0  0  0  0  0  0  0  0
  1  3  1  0  0  0  0
  1  9  2  0  0  0  0
  2  3  2  0  0  0  0
  2 10  1  0  0  0  0
  3  4  1  0  0  0  0
  4 11  1  0  0  0  0
  4 14  2  0  0  0  0
  5  6  1  0  0  0  0
  5 13  1  0  0  0  0
  5 15  2  0  0  0  0
  6  7  1  0  0  0  0
  7  8  1  0  0  0  0
  8 10  1  0  0  0  0
  9 10  1  0  0  0  0
 12 13  1  0  0  0  0
  1 16  1  0  0  0  0
  2 17  1  0  0  0  0
  6 18  1  0  0  0  0
  6 19  1  0  0  0  0
  7 20  1  0  0  0  0
  7 21  1  0  0  0  0
  8 22  1  0  0  0  0
  8 23  1  0  0  0  0
 11 24  1  0  0  0  0
 11 25  1  0  0  0  0
 12 26  1  0  0  0  0
 12 27  1  0  0  0  0
 13 28  1  0  0  0  0
M  END
> <FRED Chemgauss4 score>
-7.945119

$$$$
C87427525	P136769772
  -OEChem-05122015073D

 37 38  0     0  0  0  0  0  0999 V2000
   55.9558  159.7088   -1.5850 C   0  0  0  0  0  0  0  0  0  0  0  0
   58.0709  159.0284   -2.5341 C   0  0  0  0  0  0  0  0  0  0  0  0
   56.5709  159.8937   -0.3469 C   0  0  0  0  0  0  0  0  0  0  0  0
   58.6859  159.2133   -1.2959 C   0  0  0  0  0  0  0  0  0  0  0  0
   58.2054  155.4244   -6.3042 C   0  0  0  0  0  0  0  0  0  0  0  0
   56.7058  159.2761   -2.6787 C   0  0  0  0  0  0  0  0  0  0  0  0
   57.9359  159.6460   -0.2023 C   0  0  0  0  0  0  0  0  0  0  0  0
   56.9972  156.0648   -6.1242 C   0  0  0  0  0  0  0  0  0  0  0  0
   56.2415  154.1142   -6.7830 C   0  0  0  0  0  0  0  0  0  0  0  0
   56.8695  157.4586   -5.6700 C   0  0  0  0  0  0  0  0  0  0  0  0
   54.0538  156.9565   -3.5496 C   0  0  0  0  0  0  0  0  0  0  0  0
   55.3085  153.0304   -7.1603 C   0  0  0  0  0  0  0  0  0  0  0  0
   56.0490  159.0777   -4.0028 C   0  0  0  0  0  0  0  0  0  0  0  0
   55.5373  156.6871   -3.6539 C   0  0  0  0  0  0  0  0  0  0  0  0
   55.8701  155.3152   -6.3986 N   0  0  0  0  0  0  0  0  0  0  0  0
   58.5585  159.8346    1.0490 N   0  0  0  0  0  0  0  0  0  0  0  0
   53.4365  156.9726   -4.7819 N   0  0  0  0  0  0  0  0  0  0  0  0
   56.1720  157.7229   -4.4779 N   0  0  0  0  0  0  0  0  0  0  0  0
   57.4070  158.3123   -6.3746 O   0  0  0  0  0  0  0  0  0  0  0  0
   53.4562  157.0992   -2.4864 O   0  0  0  0  0  0  0  0  0  0  0  0
   57.9309  153.8174   -6.8367 S   0  0  0  0  0  0  0  0  0  0  0  0
   54.8917  159.9032   -1.6884 H   0  0  0  0  0  0  0  0  0  0  0  0
   58.6628  158.6894   -3.3800 H   0  0  0  0  0  0  0  0  0  0  0  0
   55.9769  160.2298    0.4991 H   0  0  0  0  0  0  0  0  0  0  0  0
   59.7501  159.0166   -1.1945 H   0  0  0  0  0  0  0  0  0  0  0  0
   59.2056  155.8058   -6.1539 H   0  0  0  0  0  0  0  0  0  0  0  0
   55.0832  153.0614   -8.2378 H   0  0  0  0  0  0  0  0  0  0  0  0
   55.7210  152.0345   -6.9301 H   0  0  0  0  0  0  0  0  0  0  0  0
   54.3539  153.1013   -6.6135 H   0  0  0  0  0  0  0  0  0  0  0  0
   54.9767  159.3135   -3.9524 H   0  0  0  0  0  0  0  0  0  0  0  0
   56.4822  159.7342   -4.7700 H   0  0  0  0  0  0  0  0  0  0  0  0
   55.7260  155.7178   -4.1234 H   0  0  0  0  0  0  0  0  0  0  0  0
   55.9844  156.7120   -2.6564 H   0  0  0  0  0  0  0  0  0  0  0  0
   58.0207  160.1913    1.8129 H   0  0  0  0  0  0  0  0  0  0  0  0
   59.5462  159.6989    1.1277 H   0  0  0  0  0  0  0  0  0  0  0  0
   53.9665  156.8144   -5.6326 H   0  0  0  0  0  0  0  0  0  0  0  0
   52.4411  157.1393   -4.8893 H   0  0  0  0  0  0  0  0  0  0  0  0
  1  3  2  0  0  0  0
  1  6  1  0  0  0  0
  2  4  1  0  0  0  0
  2  6  2  0  0  0  0
  3  7  1  0  0  0  0
  4  7  2  0  0  0  0
  5  8  2  0  0  0  0
  5 21  1  0  0  0  0
  6 13  1  0  0  0  0
  7 16  1  0  0  0  0
  8 10  1  0  0  0  0
  8 15  1  0  0  0  0
  9 12  1  0  0  0  0
  9 15  2  0  0  0  0
  9 21  1  0  0  0  0
 10 18  1  0  0  0  0
 10 19  2  0  0  0  0
 11 14  1  0  0  0  0
 11 17  1  0  0  0  0
 11 20  2  0  0  0  0
 13 18  1  0  0  0  0
 14 18  1  0  0  0  0
  1 22  1  0  0  0  0
  2 23  1  0  0  0  0
  3 24  1  0  0  0  0
  4 25  1  0  0  0  0
  5 26  1  0  0  0  0
 12 27  1  0  0  0  0
 12 28  1  0  0  0  0
 12 29  1  0  0  0  0
 13 30  1  0  0  0  0
 13 31  1  0  0  0  0
 14 32  1  0  0  0  0
 14 33  1  0  0  0  0
 16 34  1  0  0  0  0
 16 35  1  0  0  0  0
 17 36  1  0  0  0  0
 17 37  1  0  0  0  0
M  END
> <FRED Chemgauss4 score>
-7.922269

$$$$
C80530259	P125734626
  -OEChem-05122015073D

 37 38  0     0  0  0  0  0  0999 V2000
   60.2783  161.7848   -6.3030 C   0  0  0  0  0  0  0  0  0  0  0  0
   60.9116  162.1590   -4.0017 C   0  0  0  0  0  0  0  0  0  0  0  0
   61.3522  162.5680   -6.7259 C   0  0  0  0  0  0  0  0  0  0  0  0
   61.9856  162.9421   -4.4246 C   0  0  0  0  0  0  0  0  0  0  0  0
   54.4032  156.9051   -4.4214 C   0  0  0  0  0  0  0  0  0  0  0  0
   60.0579  161.5803   -4.9409 C   0  0  0  0  0  0  0  0  0  0  0  0
   62.2059  163.1467   -5.7867 C   0  0  0  0  0  0  0  0  0  0  0  0
   55.1061  157.5324   -2.5588 C   0  0  0  0  0  0  0  0  0  0  0  0
   58.9141  160.7462   -4.4905 C   0  0  0  0  0  0  0  0  0  0  0  0
   57.0963  160.0670   -1.8507 C   0  0  0  0  0  0  0  0  0  0  0  0
   55.0796  159.9783   -0.3650 C   0  0  0  0  0  0  0  0  0  0  0  0
   55.9426  157.8984   -1.3670 C   0  0  0  0  0  0  0  0  0  0  0  0
   58.0562  159.2552   -2.7024 C   0  0  0  0  0  0  0  0  0  0  0  0
   55.5525  157.0655   -3.7016 N   0  0  0  0  0  0  0  0  0  0  0  0
   53.7513  157.6412   -2.6067 N   0  0  0  0  0  0  0  0  0  0  0  0
   53.2738  157.2434   -3.7958 N   0  0  0  0  0  0  0  0  0  0  0  0
   63.2917  163.9386   -6.2143 N   0  0  0  0  0  0  0  0  0  0  0  0
   59.0623  160.1127   -3.2606 N   0  0  0  0  0  0  0  0  0  0  0  0
   56.0795  159.3421   -1.2192 N   0  0  0  0  0  0  0  0  0  0  0  0
   57.9269  160.6407   -5.2137 O   0  0  0  0  0  0  0  0  0  0  0  0
   57.2297  161.2885   -1.7388 O   0  0  0  0  0  0  0  0  0  0  0  0
   59.6193  161.3387   -7.0434 H   0  0  0  0  0  0  0  0  0  0  0  0
   60.7492  162.0061   -2.9378 H   0  0  0  0  0  0  0  0  0  0  0  0
   61.5147  162.7209   -7.7898 H   0  0  0  0  0  0  0  0  0  0  0  0
   62.6447  163.3884   -3.6843 H   0  0  0  0  0  0  0  0  0  0  0  0
   54.4063  156.5275   -5.4355 H   0  0  0  0  0  0  0  0  0  0  0  0
   54.2154  160.2829   -0.9610 H   0  0  0  0  0  0  0  0  0  0  0  0
   55.5031  160.8628    0.1183 H   0  0  0  0  0  0  0  0  0  0  0  0
   54.7455  159.2821    0.4089 H   0  0  0  0  0  0  0  0  0  0  0  0
   55.4963  157.5060   -0.4467 H   0  0  0  0  0  0  0  0  0  0  0  0
   56.9486  157.4733   -1.4474 H   0  0  0  0  0  0  0  0  0  0  0  0
   58.5637  158.5042   -2.0916 H   0  0  0  0  0  0  0  0  0  0  0  0
   57.5244  158.7865   -3.5344 H   0  0  0  0  0  0  0  0  0  0  0  0
   52.2841  157.2501   -4.0266 H   0  0  0  0  0  0  0  0  0  0  0  0
   63.4667  164.0388   -7.1937 H   0  0  0  0  0  0  0  0  0  0  0  0
   63.9235  164.3087   -5.5332 H   0  0  0  0  0  0  0  0  0  0  0  0
   59.9410  160.2029   -2.7514 H   0  0  0  0  0  0  0  0  0  0  0  0
  1  3  2  0  0  0  0
  1  6  1  0  0  0  0
  2  4  1  0  0  0  0
  2  6  2  0  0  0  0
  3  7  1  0  0  0  0
  4  7  2  0  0  0  0
  5 14  2  0  0  0  0
  5 16  1  0  0  0  0
  6  9  1  0  0  0  0
  7 17  1  0  0  0  0
  8 12  1  0  0  0  0
  8 14  1  0  0  0  0
  8 15  2  0  0  0  0
  9 18  1  0  0  0  0
  9 20  2  0  0  0  0
 10 13  1  0  0  0  0
 10 19  1  0  0  0  0
 10 21  2  0  0  0  0
 11 19  1  0  0  0  0
 12 19  1  0  0  0  0
 13 18  1  0  0  0  0
 15 16  1  0  0  0  0
  1 22  1  0  0  0  0
  2 23  1  0  0  0  0
  3 24  1  0  0  0  0
  4 25  1  0  0  0  0
  5 26  1  0  0  0  0
 11 27  1  0  0  0  0
 11 28  1  0  0  0  0
 11 29  1  0  0  0  0
 12 30  1  0  0  0  0
 12 31  1  0  0  0  0
 13 32  1  0  0  0  0
 13 33  1  0  0  0  0
 16 34  1  0  0  0  0
 17 35  1  0  0  0  0
 17 36  1  0  0  0  0
 18 37  1  0  0  0  0
M  END
> <FRED Chemgauss4 score>
-7.891335

$$$$
C54700285	P82325531
  -OEChem-05122015073D

 27 29  0     1  0  0  0  0  0999 V2000
   57.0937  159.6361    0.1875 C   0  0  0  0  0  0  0  0  0  0  0  0
   55.9833  159.1491   -0.5608 C   0  0  0  0  0  0  0  0  0  0  0  0
   58.2266  159.7567   -0.5868 C   0  0  0  0  0  0  0  0  0  0  0  0
   56.3098  158.9163   -1.8788 C   0  0  0  0  0  0  0  0  0  0  0  0
   55.3668  158.4098   -2.8927 C   0  0  0  0  0  0  0  0  0  0  0  0
   54.6288  157.7586   -4.7334 C   0  0  0  0  0  0  0  0  0  0  0  0
   54.2540  154.8752   -5.3913 C   0  0  0  0  0  0  0  0  0  0  0  0
   55.6984  155.1502   -5.7038 C   0  0  0  0  0  0  0  0  0  0  0  0
   54.6160  155.8911   -6.4391 C   0  0  0  0  0  0  0  0  0  0  0  0
   54.3943  157.3418   -6.1851 C   0  0  1  0  0  0  0  0  0  0  0  0
   55.7404  158.1953   -4.1885 N   0  0  0  0  0  0  0  0  0  0  0  0
   54.0940  158.1331   -2.6016 N   0  0  0  0  0  0  0  0  0  0  0  0
   53.6444  157.7186   -3.7958 N   0  0  0  0  0  0  0  0  0  0  0  0
   53.0647  157.7622   -6.6136 N   0  0  0  0  0  0  0  0  0  0  0  0
   57.9493  159.2841   -2.2091 S   0  0  0  0  0  0  0  0  0  0  0  0
   57.0626  159.8858    1.2401 H   0  0  0  0  0  0  0  0  0  0  0  0
   54.9973  158.9809   -0.1450 H   0  0  0  0  0  0  0  0  0  0  0  0
   59.2037  160.1004   -0.2779 H   0  0  0  0  0  0  0  0  0  0  0  0
   53.8423  153.9253   -5.7095 H   0  0  0  0  0  0  0  0  0  0  0  0
   53.8639  155.2402   -4.4491 H   0  0  0  0  0  0  0  0  0  0  0  0
   56.2767  155.6994   -4.9710 H   0  0  0  0  0  0  0  0  0  0  0  0
   56.2537  154.3847   -6.2316 H   0  0  0  0  0  0  0  0  0  0  0  0
   54.4419  155.6284   -7.4755 H   0  0  0  0  0  0  0  0  0  0  0  0
   55.0814  157.9397   -6.8178 H   0  0  0  0  0  0  0  0  0  0  0  0
   52.6772  157.4309   -3.8887 H   0  0  0  0  0  0  0  0  0  0  0  0
   52.6726  157.3303   -7.4230 H   0  0  0  0  0  0  0  0  0  0  0  0
   52.6836  158.5944   -6.2165 H   0  0  0  0  0  0  0  0  0  0  0  0
  1  2  1  0  0  0  0
  1  3  2  0  0  0  0
  2  4  2  0  0  0  0
  3 15  1  0  0  0  0
  4  5  1  0  0  0  0
  4 15  1  0  0  0  0
  5 11  1  0  0  0  0
  5 12  2  0  0  0  0
  6 10  1  0  0  0  0
  6 11  2  0  0  0  0
  6 13  1  0  0  0  0
  7  8  1  0  0  0  0
  7  9  1  0  0  0  0
  8  9  1  0  0  0  0
  9 10  1  0  0  0  0
 10 14  1  0  0  0  0
 12 13  1  0  0  0  0
  1 16  1  0  0  0  0
  2 17  1  0  0  0  0
  3 18  1  0  0  0  0
  7 19  1  0  0  0  0
  7 20  1  0  0  0  0
  8 21  1  0  0  0  0
  8 22  1  0  0  0  0
  9 23  1  0  0  0  0
 10 24  1  0  0  0  0
 13 25  1  0  0  0  0
 14 26  1  0  0  0  0
 14 27  1  0  0  0  0
M  END
> <FRED Chemgauss4 score>
-7.881871

$$$$
C78986123	P123291637
  -OEChem-05122015073D

 32 32  0     0  0  0  0  0  0999 V2000
   60.2491  160.8667   -6.3081 C   0  0  0  0  0  0  0  0  0  0  0  0
   60.9522  162.0412   -6.5761 C   0  0  0  0  0  0  0  0  0  0  0  0
   60.7076  162.7142   -4.2687 C   0  0  0  0  0  0  0  0  0  0  0  0
   59.7752  160.6160   -5.0203 C   0  0  0  0  0  0  0  0  0  0  0  0
   61.1815  162.9650   -5.5564 C   0  0  0  0  0  0  0  0  0  0  0  0
   60.0044  161.5397   -4.0006 C   0  0  0  0  0  0  0  0  0  0  0  0
   54.5468  156.9544   -3.4950 C   0  0  0  0  0  0  0  0  0  0  0  0
   55.8909  156.5220   -4.0654 C   0  0  0  0  0  0  0  0  0  0  0  0
   56.6794  157.7007   -4.6373 C   0  0  0  0  0  0  0  0  0  0  0  0
   58.0294  157.2765   -5.2284 C   0  0  0  0  0  0  0  0  0  0  0  0
   58.8116  158.4532   -5.8072 C   0  0  0  0  0  0  0  0  0  0  0  0
   54.5439  157.3529   -2.2574 N   0  0  0  0  0  0  0  0  0  0  0  0
   53.4717  156.8712   -4.3488 N   0  0  0  0  0  0  0  0  0  0  0  0
   59.0782  159.4404   -4.7890 N   0  0  0  0  0  0  0  0  0  0  0  0
   55.8354  157.2843   -1.7272 O   0  0  0  0  0  0  0  0  0  0  0  0
   61.8564  164.0928   -5.8144 F   0  0  0  0  0  0  0  0  0  0  0  0
   59.3830  161.2488   -2.2307 Br  0  0  0  0  0  0  0  0  0  0  0  0
   60.0770  160.1550   -7.1115 H   0  0  0  0  0  0  0  0  0  0  0  0
   61.3214  162.2368   -7.5786 H   0  0  0  0  0  0  0  0  0  0  0  0
   60.8968  163.4459   -3.4876 H   0  0  0  0  0  0  0  0  0  0  0  0
   55.7363  155.7537   -4.8318 H   0  0  0  0  0  0  0  0  0  0  0  0
   56.4680  156.0597   -3.2555 H   0  0  0  0  0  0  0  0  0  0  0  0
   56.8544  158.4221   -3.8298 H   0  0  0  0  0  0  0  0  0  0  0  0
   56.0825  158.2135   -5.4005 H   0  0  0  0  0  0  0  0  0  0  0  0
   58.6347  156.8117   -4.4407 H   0  0  0  0  0  0  0  0  0  0  0  0
   57.8766  156.5201   -6.0073 H   0  0  0  0  0  0  0  0  0  0  0  0
   58.2265  158.9219   -6.6054 H   0  0  0  0  0  0  0  0  0  0  0  0
   59.7548  158.1135   -6.2476 H   0  0  0  0  0  0  0  0  0  0  0  0
   53.5861  156.5397   -5.3005 H   0  0  0  0  0  0  0  0  0  0  0  0
   52.5362  157.1376   -4.0604 H   0  0  0  0  0  0  0  0  0  0  0  0
   58.7351  159.2644   -3.8510 H   0  0  0  0  0  0  0  0  0  0  0  0
   55.6910  157.6028   -0.8202 H   0  0  0  0  0  0  0  0  0  0  0  0
  1  2  1  0  0  0  0
  1  4  2  0  0  0  0
  2  5  2  0  0  0  0
  3  5  1  0  0  0  0
  3  6  2  0  0  0  0
  4  6  1  0  0  0  0
  4 14  1  0  0  0  0
  5 16  1  0  0  0  0
  6 17  1  0  0  0  0
  7  8  1  0  0  0  0
  7 12  2  0  0  0  0
  7 13  1  0  0  0  0
  8  9  1  0  0  0  0
  9 10  1  0  0  0  0
 10 11  1  0  0  0  0
 11 14  1  0  0  0  0
 12 15  1  0  0  0  0
  1 18  1  0  0  0  0
  2 19  1  0  0  0  0
  3 20  1  0  0  0  0
  8 21  1  0  0  0  0
  8 22  1  0  0  0  0
  9 23  1  0  0  0  0
  9 24  1  0  0  0  0
 10 25  1  0  0  0  0
 10 26  1  0  0  0  0
 11 27  1  0  0  0  0
 11 28  1  0  0  0  0
 13 29  1  0  0  0  0
 13 30  1  0  0  0  0
 14 31  1  0  0  0  0
 15 32  1  0  0  0  0
M  END
> <FRED Chemgauss4 score>
-7.881344

$$$$
C42440727	P64190320
  -OEChem-05122015073D

 32 32  0     0  0  0  0  0  0999 V2000
   54.5025  157.8252   -3.7683 C   0  0  0  0  0  0  0  0  0  0  0  0
   53.4487  156.8506   -3.4217 C   0  0  0  0  0  0  0  0  0  0  0  0
   59.1237  154.4141   -7.0567 C   0  0  0  0  0  0  0  0  0  0  0  0
   56.5553  155.3972   -5.4240 C   0  0  0  0  0  0  0  0  0  0  0  0
   57.5537  157.6764   -5.7747 C   0  0  0  0  0  0  0  0  0  0  0  0
   55.9814  155.8817   -4.0961 C   0  0  0  0  0  0  0  0  0  0  0  0
   56.9464  158.1293   -4.4465 C   0  0  0  0  0  0  0  0  0  0  0  0
   57.8325  156.1674   -5.7846 C   0  0  0  0  0  0  0  0  0  0  0  0
   58.3712  155.7225   -7.1421 C   0  0  0  0  0  0  0  0  0  0  0  0
   55.7602  157.3301   -4.1052 N   0  0  0  0  0  0  0  0  0  0  0  0
   60.4693  154.6062   -6.8279 N   0  0  0  0  0  0  0  0  0  0  0  0
   51.7104  155.5355   -4.3521 N   0  0  0  0  0  0  0  0  0  0  0  0
   52.7318  156.4483   -4.5245 N   0  0  0  0  0  0  0  0  0  0  0  0
   54.2030  159.0202   -3.7422 O   0  0  0  0  0  0  0  0  0  0  0  0
   53.2955  156.4929   -2.2621 O   0  0  0  0  0  0  0  0  0  0  0  0
   58.6030  153.3090   -7.1769 O   0  0  0  0  0  0  0  0  0  0  0  0
   56.7666  154.3234   -5.3614 H   0  0  0  0  0  0  0  0  0  0  0  0
   55.8050  155.5338   -6.2136 H   0  0  0  0  0  0  0  0  0  0  0  0
   56.8602  157.9274   -6.5880 H   0  0  0  0  0  0  0  0  0  0  0  0
   58.4803  158.2323   -5.9596 H   0  0  0  0  0  0  0  0  0  0  0  0
   55.0447  155.3560   -3.8830 H   0  0  0  0  0  0  0  0  0  0  0  0
   56.6743  155.6622   -3.2751 H   0  0  0  0  0  0  0  0  0  0  0  0
   57.6688  157.9966   -3.6324 H   0  0  0  0  0  0  0  0  0  0  0  0
   56.7076  159.1945   -4.4995 H   0  0  0  0  0  0  0  0  0  0  0  0
   58.5974  155.9491   -5.0274 H   0  0  0  0  0  0  0  0  0  0  0  0
   59.0422  156.4921   -7.5320 H   0  0  0  0  0  0  0  0  0  0  0  0
   57.5371  155.6060   -7.8387 H   0  0  0  0  0  0  0  0  0  0  0  0
   60.8320  155.5501   -6.7394 H   0  0  0  0  0  0  0  0  0  0  0  0
   61.1025  153.8175   -6.7468 H   0  0  0  0  0  0  0  0  0  0  0  0
   50.9895  155.7661   -5.0348 H   0  0  0  0  0  0  0  0  0  0  0  0
   51.3008  155.7197   -3.4370 H   0  0  0  0  0  0  0  0  0  0  0  0
   52.9127  156.7885   -5.4640 H   0  0  0  0  0  0  0  0  0  0  0  0
  1  2  1  0  0  0  0
  1 10  1  0  0  0  0
  1 14  2  0  0  0  0
  2 13  1  0  0  0  0
  2 15  2  0  0  0  0
  3  9  1  0  0  0  0
  3 11  1  0  0  0  0
  3 16  2  0  0  0  0
  4  6  1  0  0  0  0
  4  8  1  0  0  0  0
  5  7  1  0  0  0  0
  5  8  1  0  0  0  0
  6 10  1  0  0  0  0
  7 10  1  0  0  0  0
  8  9  1  0  0  0  0
 12 13  1  0  0  0  0
  4 17  1  0  0  0  0
  4 18  1  0  0  0  0
  5 19  1  0  0  0  0
  5 20  1  0  0  0  0
  6 21  1  0  0  0  0
  6 22  1  0  0  0  0
  7 23  1  0  0  0  0
  7 24  1  0  0  0  0
  8 25  1  0  0  0  0
  9 26  1  0  0  0  0
  9 27  1  0  0  0  0
 11 28  1  0  0  0  0
 11 29  1  0  0  0  0
 12 30  1  0  0  0  0
 12 31  1  0  0  0  0
 13 32  1  0  0  0  0
M  END
> <FRED Chemgauss4 score>
-7.874200

$$$$
C37821635	P56255392
  -OEChem-05122015073D

 41 42  0     1  0  0  0  0  0999 V2000
   53.6860  156.0060   -3.5509 C   0  0  0  0  0  0  0  0  0  0  0  0
   58.2172  157.5045   -4.9650 C   0  0  0  0  0  0  0  0  0  0  0  0
   54.6846  154.9959   -5.5927 C   0  0  0  0  0  0  0  0  0  0  0  0
   59.6280  161.3750   -1.0565 C   0  0  0  0  0  0  0  0  0  0  0  0
   60.2545  160.1639   -1.6892 C   0  0  0  0  0  0  0  0  0  0  0  0
   56.0821  154.6559   -6.1085 C   0  0  0  0  0  0  0  0  0  0  0  0
   56.0495  156.5367   -4.0883 C   0  0  0  0  0  0  0  0  0  0  0  0
   54.6701  156.2156   -4.6639 C   0  0  2  0  0  0  0  0  0  0  0  0
   59.1543  160.9003   -2.4023 C   0  0  0  0  0  0  0  0  0  0  0  0
   56.9458  155.8979   -6.3523 C   0  0  1  0  0  0  0  0  0  0  0  0
   56.4268  156.7434   -7.5192 C   0  0  0  0  0  0  0  0  0  0  0  0
   58.3607  158.2157   -3.6423 C   0  0  0  0  0  0  0  0  0  0  0  0
   57.8067  160.2795   -2.5476 C   0  0  0  0  0  0  0  0  0  0  0  0
   57.0786  156.7067   -5.1256 N   0  0  0  0  0  0  0  0  0  0  0  0
   52.4076  155.7428   -3.9831 N   0  0  0  0  0  0  0  0  0  0  0  0
   57.7189  159.4879   -3.7782 N   0  0  0  0  0  0  0  0  0  0  0  0
   54.0176  156.0528   -2.3688 O   0  0  0  0  0  0  0  0  0  0  0  0
   59.0848  157.6524   -5.8296 O   0  0  0  0  0  0  0  0  0  0  0  0
   54.0181  155.1890   -6.4472 H   0  0  0  0  0  0  0  0  0  0  0  0
   54.2689  154.1179   -5.0745 H   0  0  0  0  0  0  0  0  0  0  0  0
   58.9883  161.2194   -0.1965 H   0  0  0  0  0  0  0  0  0  0  0  0
   60.2140  162.2852   -1.0209 H   0  0  0  0  0  0  0  0  0  0  0  0
   61.2608  160.2621   -2.0776 H   0  0  0  0  0  0  0  0  0  0  0  0
   60.0341  159.1975   -1.2531 H   0  0  0  0  0  0  0  0  0  0  0  0
   56.5835  154.0181   -5.3690 H   0  0  0  0  0  0  0  0  0  0  0  0
   56.0024  154.0601   -7.0256 H   0  0  0  0  0  0  0  0  0  0  0  0
   56.0083  157.4782   -3.5291 H   0  0  0  0  0  0  0  0  0  0  0  0
   56.3324  155.7614   -3.3737 H   0  0  0  0  0  0  0  0  0  0  0  0
   54.3069  157.0823   -5.2251 H   0  0  0  0  0  0  0  0  0  0  0  0
   59.4249  161.4924   -3.2683 H   0  0  0  0  0  0  0  0  0  0  0  0
   57.9397  155.5422   -6.6440 H   0  0  0  0  0  0  0  0  0  0  0  0
   55.4363  157.1246   -7.2820 H   0  0  0  0  0  0  0  0  0  0  0  0
   56.3713  156.1321   -8.4169 H   0  0  0  0  0  0  0  0  0  0  0  0
   57.1013  157.5784   -7.6938 H   0  0  0  0  0  0  0  0  0  0  0  0
   59.4200  158.3294   -3.4320 H   0  0  0  0  0  0  0  0  0  0  0  0
   57.8803  157.6114   -2.8786 H   0  0  0  0  0  0  0  0  0  0  0  0
   57.0319  161.0508   -2.5908 H   0  0  0  0  0  0  0  0  0  0  0  0
   57.5939  159.6129   -1.7067 H   0  0  0  0  0  0  0  0  0  0  0  0
   52.2281  155.7104   -4.9813 H   0  0  0  0  0  0  0  0  0  0  0  0
   51.6364  155.5797   -3.3440 H   0  0  0  0  0  0  0  0  0  0  0  0
   56.7243  159.3673   -4.0097 H   0  0  0  0  0  0  0  0  0  0  0  0
  1  8  1  0  0  0  0
  1 15  1  0  0  0  0
  1 17  2  0  0  0  0
  2 12  1  0  0  0  0
  2 14  1  0  0  0  0
  2 18  2  0  0  0  0
  3  6  1  0  0  0  0
  3  8  1  0  0  0  0
  4  5  1  0  0  0  0
  4  9  1  0  0  0  0
  5  9  1  0  0  0  0
  6 10  1  0  0  0  0
  7  8  1  0  0  0  0
  7 14  1  0  0  0  0
  9 13  1  0  0  0  0
 10 11  1  0  0  0  0
 10 14  1  0  0  0  0
 12 16  1  0  0  0  0
 13 16  1  0  0  0  0
  3 19  1  0  0  0  0
  3 20  1  0  0  0  0
  4 21  1  0  0  0  0
  4 22  1  0  0  0  0
  5 23  1  0  0  0  0
  5 24  1  0  0  0  0
  6 25  1  0  0  0  0
  6 26  1  0  0  0  0
  7 27  1  0  0  0  0
  7 28  1  0  0  0  0
  8 29  1  0  0  0  0
  9 30  1  0  0  0  0
 10 31  1  0  0  0  0
 11 32  1  0  0  0  0
 11 33  1  0  0  0  0
 11 34  1  0  0  0  0
 12 35  1  0  0  0  0
 12 36  1  0  0  0  0
 13 37  1  0  0  0  0
 13 38  1  0  0  0  0
 15 39  1  0  0  0  0
 15 40  1  0  0  0  0
 16 41  1  0  0  0  0
M  END
> <FRED Chemgauss4 score>
-7.862574

$$$$
C68634020	P105372851
  -OEChem-05122015073D

 44 46  0     1  0  0  0  0  0999 V2000
   56.5685  159.1626   -1.9872 C   0  0  0  0  0  0  0  0  0  0  0  0
   56.8910  158.2838   -3.9450 C   0  0  0  0  0  0  0  0  0  0  0  0
   54.4903  154.3895   -5.0365 C   0  0  0  0  0  0  0  0  0  0  0  0
   57.9331  159.6154    0.2025 C   0  0  0  0  0  0  0  0  0  0  0  0
   56.5541  159.2231    0.6316 C   0  0  0  0  0  0  0  0  0  0  0  0
   59.0461  161.1440   -2.7954 C   0  0  0  0  0  0  0  0  0  0  0  0
   59.2932  160.5498   -4.1466 C   0  0  0  0  0  0  0  0  0  0  0  0
   56.7556  159.9197   -0.6937 C   0  0  0  0  0  0  0  0  0  0  0  0
   58.8673  159.6584   -3.0036 C   0  0  0  0  0  0  0  0  0  0  0  0
   57.7822  155.4018   -6.6594 C   0  0  0  0  0  0  0  0  0  0  0  0
   54.9184  154.1179   -7.5129 C   0  0  0  0  0  0  0  0  0  0  0  0
   55.4618  156.3590   -6.4047 C   0  0  0  0  0  0  0  0  0  0  0  0
   56.8612  156.2324   -5.7626 C   0  0  2  0  0  0  0  0  0  0  0  0
   54.5432  155.1054   -6.3976 C   0  0  2  0  0  0  0  0  0  0  0  0
   55.4770  158.5060   -2.3099 N   0  0  0  0  0  0  0  0  0  0  0  0
   55.6822  157.9470   -3.5554 N   0  0  0  0  0  0  0  0  0  0  0  0
   57.4851  159.0494   -2.9881 N   0  0  0  0  0  0  0  0  0  0  0  0
   54.1602  155.1970   -3.9687 N   0  0  0  0  0  0  0  0  0  0  0  0
   53.1612  155.5577   -6.6460 N   0  0  0  0  0  0  0  0  0  0  0  0
   54.7222  153.1878   -4.9054 O   0  0  0  0  0  0  0  0  0  0  0  0
   57.6713  157.8408   -5.4645 S   0  0  0  0  0  0  0  0  0  0  0  0
   58.4050  160.4437    0.7181 H   0  0  0  0  0  0  0  0  0  0  0  0
   58.6154  158.8246   -0.0866 H   0  0  0  0  0  0  0  0  0  0  0  0
   56.3080  158.1677    0.6309 H   0  0  0  0  0  0  0  0  0  0  0  0
   56.0954  159.7862    1.4361 H   0  0  0  0  0  0  0  0  0  0  0  0
   59.9050  161.4728   -2.2233 H   0  0  0  0  0  0  0  0  0  0  0  0
   58.1621  161.7575   -2.6698 H   0  0  0  0  0  0  0  0  0  0  0  0
   58.5761  160.7640   -4.9296 H   0  0  0  0  0  0  0  0  0  0  0  0
   60.3192  160.4760   -4.4860 H   0  0  0  0  0  0  0  0  0  0  0  0
   56.4428  160.9781   -0.7284 H   0  0  0  0  0  0  0  0  0  0  0  0
   59.5889  158.9945   -2.5793 H   0  0  0  0  0  0  0  0  0  0  0  0
   57.9073  155.8561   -7.6491 H   0  0  0  0  0  0  0  0  0  0  0  0
   58.7735  155.2755   -6.2093 H   0  0  0  0  0  0  0  0  0  0  0  0
   57.3667  154.3987   -6.8079 H   0  0  0  0  0  0  0  0  0  0  0  0
   54.9610  154.6104   -8.4903 H   0  0  0  0  0  0  0  0  0  0  0  0
   54.1986  153.2940   -7.5779 H   0  0  0  0  0  0  0  0  0  0  0  0
   55.9106  153.6805   -7.3451 H   0  0  0  0  0  0  0  0  0  0  0  0
   54.9422  157.2191   -5.9611 H   0  0  0  0  0  0  0  0  0  0  0  0
   55.6278  156.6392   -7.4561 H   0  0  0  0  0  0  0  0  0  0  0  0
   56.7856  155.7191   -4.7992 H   0  0  0  0  0  0  0  0  0  0  0  0
   53.9783  156.1805   -4.1388 H   0  0  0  0  0  0  0  0  0  0  0  0
   54.0922  154.8455   -3.0195 H   0  0  0  0  0  0  0  0  0  0  0  0
   52.8807  156.4108   -6.2293 H   0  0  0  0  0  0  0  0  0  0  0  0
   52.5318  154.9009   -7.0369 H   0  0  0  0  0  0  0  0  0  0  0  0
  1  8  1  0  0  0  0
  1 15  2  0  0  0  0
  1 17  1  0  0  0  0
  2 16  2  0  0  0  0
  2 17  1  0  0  0  0
  2 21  1  0  0  0  0
  3 14  1  0  0  0  0
  3 18  1  0  0  0  0
  3 20  2  0  0  0  0
  4  5  1  0  0  0  0
  4  8  1  0  0  0  0
  5  8  1  0  0  0  0
  6  7  1  0  0  0  0
  6  9  1  0  0  0  0
  7  9  1  0  0  0  0
  9 17  1  0  0  0  0
 10 13  1  0  0  0  0
 11 14  1  0  0  0  0
 12 13  1  0  0  0  0
 12 14  1  0  0  0  0
 13 21  1  0  0  0  0
 14 19  1  0  0  0  0
 15 16  1  0  0  0  0
  4 22  1  0  0  0  0
  4 23  1  0  0  0  0
  5 24  1  0  0  0  0
  5 25  1  0  0  0  0
  6 26  1  0  0  0  0
  6 27  1  0  0  0  0
  7 28  1  0  0  0  0
  7 29  1  0  0  0  0
  8 30  1  0  0  0  0
  9 31  1  0  0  0  0
 10 32  1  0  0  0  0
 10 33  1  0  0  0  0
 10 34  1  0  0  0  0
 11 35  1  0  0  0  0
 11 36  1  0  0  0  0
 11 37  1  0  0  0  0
 12 38  1  0  0  0  0
 12 39  1  0  0  0  0
 13 40  1  0  0  0  0
 18 41  1  0  0  0  0
 18 42  1  0  0  0  0
 19 43  1  0  0  0  0
 19 44  1  0  0  0  0
M  END
> <FRED Chemgauss4 score>
-7.860330

$$$$
C95868194	P150889557
  -OEChem-05122015073D

 28 29  0     1  0  0  0  0  0999 V2000
   55.4975  155.7284   -4.8748 C   0  0  0  0  0  0  0  0  0  0  0  0
   56.6165  155.7116   -5.6698 C   0  0  0  0  0  0  0  0  0  0  0  0
   56.6552  154.4004   -6.2072 C   0  0  0  0  0  0  0  0  0  0  0  0
   52.9525  155.1294   -3.7047 C   0  0  0  0  0  0  0  0  0  0  0  0
   57.6169  156.7630   -5.9798 C   0  0  0  0  0  0  0  0  0  0  0  0
   58.8857  156.1470   -6.5977 C   0  0  0  0  0  0  0  0  0  0  0  0
   58.5473  155.1047   -7.6804 C   0  0  0  0  0  0  0  0  0  0  0  0
   57.7440  153.9137   -7.1050 C   0  0  2  0  0  0  0  0  0  0  0  0
   53.7733  154.0059   -4.2945 C   0  0  0  0  0  0  0  0  0  0  0  0
   55.6539  153.6365   -5.7586 N   0  0  0  0  0  0  0  0  0  0  0  0
   54.9622  154.4752   -4.9649 N   0  0  0  0  0  0  0  0  0  0  0  0
   52.0068  155.6021   -4.5897 N   0  0  0  0  0  0  0  0  0  0  0  0
   57.1843  153.1271   -8.2015 N   0  0  0  0  0  0  0  0  0  0  0  0
   53.1078  155.5750   -2.5713 O   0  0  0  0  0  0  0  0  0  0  0  0
   55.0493  156.5019   -4.2664 H   0  0  0  0  0  0  0  0  0  0  0  0
   57.1759  157.4732   -6.6899 H   0  0  0  0  0  0  0  0  0  0  0  0
   57.8824  157.3233   -5.0765 H   0  0  0  0  0  0  0  0  0  0  0  0
   59.5043  156.9433   -7.0270 H   0  0  0  0  0  0  0  0  0  0  0  0
   59.4818  155.6654   -5.8118 H   0  0  0  0  0  0  0  0  0  0  0  0
   57.9760  155.6048   -8.4750 H   0  0  0  0  0  0  0  0  0  0  0  0
   59.4732  154.7374   -8.1398 H   0  0  0  0  0  0  0  0  0  0  0  0
   58.4222  153.2809   -6.5188 H   0  0  0  0  0  0  0  0  0  0  0  0
   53.1695  153.4484   -5.0195 H   0  0  0  0  0  0  0  0  0  0  0  0
   54.0811  153.3132   -3.5031 H   0  0  0  0  0  0  0  0  0  0  0  0
   51.8976  155.2189   -5.5233 H   0  0  0  0  0  0  0  0  0  0  0  0
   51.3809  156.3576   -4.3305 H   0  0  0  0  0  0  0  0  0  0  0  0
   56.3922  152.5533   -8.0097 H   0  0  0  0  0  0  0  0  0  0  0  0
   57.7247  153.0328   -9.0336 H   0  0  0  0  0  0  0  0  0  0  0  0
  1  2  2  0  0  0  0
  1 11  1  0  0  0  0
  2  3  1  0  0  0  0
  2  5  1  0  0  0  0
  3  8  1  0  0  0  0
  3 10  2  0  0  0  0
  4  9  1  0  0  0  0
  4 12  1  0  0  0  0
  4 14  2  0  0  0  0
  5  6  1  0  0  0  0
  6  7  1  0  0  0  0
  7  8  1  0  0  0  0
  8 13  1  0  0  0  0
  9 11  1  0  0  0  0
 10 11  1  0  0  0  0
  1 15  1  0  0  0  0
  5 16  1  0  0  0  0
  5 17  1  0  0  0  0
  6 18  1  0  0  0  0
  6 19  1  0  0  0  0
  7 20  1  0  0  0  0
  7 21  1  0  0  0  0
  8 22  1  0  0  0  0
  9 23  1  0  0  0  0
  9 24  1  0  0  0  0
 12 25  1  0  0  0  0
 12 26  1  0  0  0  0
 13 27  1  0  0  0  0
 13 28  1  0  0  0  0
M  END
> <FRED Chemgauss4 score>
-7.855355

$$$$
C91280072	P142762411
  -OEChem-05122015073D

 38 39  0     1  0  0  0  0  0999 V2000
   61.0107  163.6470   -5.5809 C   0  0  0  0  0  0  0  0  0  0  0  0
   61.5937  162.7874   -6.5118 C   0  0  0  0  0  0  0  0  0  0  0  0
   60.0728  163.1579   -4.6715 C   0  0  0  0  0  0  0  0  0  0  0  0
   61.2387  161.4386   -6.5336 C   0  0  0  0  0  0  0  0  0  0  0  0
   54.7213  160.2098   -2.6942 C   0  0  0  0  0  0  0  0  0  0  0  0
   55.6659  158.7019   -3.9862 C   0  0  0  0  0  0  0  0  0  0  0  0
   59.7179  161.8091   -4.6933 C   0  0  0  0  0  0  0  0  0  0  0  0
   55.5277  160.0605   -3.8384 C   0  0  0  0  0  0  0  0  0  0  0  0
   60.3008  160.9494   -5.6243 C   0  0  0  0  0  0  0  0  0  0  0  0
   56.9568  162.6302   -2.5498 C   0  0  0  0  0  0  0  0  0  0  0  0
   58.7043  161.3285   -3.6954 C   0  0  0  0  0  0  0  0  0  0  0  0
   54.8103  156.7312   -2.6963 C   0  0  0  0  0  0  0  0  0  0  0  0
   53.4459  156.1878   -3.1064 C   0  0  0  0  0  0  0  0  0  0  0  0
   54.3716  159.0396   -2.1536 N   0  0  0  0  0  0  0  0  0  0  0  0
   54.9610  158.1420   -2.9616 N   0  0  0  0  0  0  0  0  0  0  0  0
   53.1947  156.3341   -4.5147 N   0  0  0  0  0  0  0  0  0  0  0  0
   57.4072  162.0381   -3.8350 N   0  0  1  0  0  0  0  0  0  0  0  0
   56.8614  160.6844   -5.9834 O   0  0  0  0  0  0  0  0  0  0  0  0
   55.1577  162.3011   -5.1073 O   0  0  0  0  0  0  0  0  0  0  0  0
   56.2121  161.3349   -4.8602 S   0  0  0  0  0  0  0  0  0  0  0  0
   59.8484  159.1091   -5.6950 Br  0  0  0  0  0  0  0  0  0  0  0  0
   61.2871  164.6969   -5.5642 H   0  0  0  0  0  0  0  0  0  0  0  0
   62.3239  163.1685   -7.2196 H   0  0  0  0  0  0  0  0  0  0  0  0
   59.6251  163.8367   -3.9506 H   0  0  0  0  0  0  0  0  0  0  0  0
   61.7038  160.7840   -7.2666 H   0  0  0  0  0  0  0  0  0  0  0  0
   54.3720  161.1211   -2.2299 H   0  0  0  0  0  0  0  0  0  0  0  0
   56.1924  158.1007   -4.7149 H   0  0  0  0  0  0  0  0  0  0  0  0
   56.0016  163.1438   -2.6870 H   0  0  0  0  0  0  0  0  0  0  0  0
   57.6947  163.3506   -2.1863 H   0  0  0  0  0  0  0  0  0  0  0  0
   56.8305  161.8477   -1.7967 H   0  0  0  0  0  0  0  0  0  0  0  0
   58.5174  160.2564   -3.8206 H   0  0  0  0  0  0  0  0  0  0  0  0
   59.0597  161.4791   -2.6706 H   0  0  0  0  0  0  0  0  0  0  0  0
   54.9648  156.5897   -1.6199 H   0  0  0  0  0  0  0  0  0  0  0  0
   55.6200  156.2012   -3.2120 H   0  0  0  0  0  0  0  0  0  0  0  0
   53.3869  155.1180   -2.8835 H   0  0  0  0  0  0  0  0  0  0  0  0
   52.6350  156.6950   -2.5737 H   0  0  0  0  0  0  0  0  0  0  0  0
   52.2428  156.3629   -4.8437 H   0  0  0  0  0  0  0  0  0  0  0  0
   53.9528  156.2016   -5.1653 H   0  0  0  0  0  0  0  0  0  0  0  0
  1  2  1  0  0  0  0
  1  3  2  0  0  0  0
  2  4  2  0  0  0  0
  3  7  1  0  0  0  0
  4  9  1  0  0  0  0
  5  8  1  0  0  0  0
  5 14  2  0  0  0  0
  6  8  2  0  0  0  0
  6 15  1  0  0  0  0
  7  9  2  0  0  0  0
  7 11  1  0  0  0  0
  8 20  1  0  0  0  0
  9 21  1  0  0  0  0
 10 17  1  0  0  0  0
 11 17  1  0  0  0  0
 12 13  1  0  0  0  0
 12 15  1  0  0  0  0
 13 16  1  0  0  0  0
 14 15  1  0  0  0  0
 17 20  1  0  0  0  0
 18 20  2  0  0  0  0
 19 20  2  0  0  0  0
  1 22  1  0  0  0  0
  2 23  1  0  0  0  0
  3 24  1  0  0  0  0
  4 25  1  0  0  0  0
  5 26  1  0  0  0  0
  6 27  1  0  0  0  0
 10 28  1  0  0  0  0
 10 29  1  0  0  0  0
 10 30  1  0  0  0  0
 11 31  1  0  0  0  0
 11 32  1  0  0  0  0
 12 33  1  0  0  0  0
 12 34  1  0  0  0  0
 13 35  1  0  0  0  0
 13 36  1  0  0  0  0
 16 37  1  0  0  0  0
 16 38  1  0  0  0  0
M  END
> <FRED Chemgauss4 score>
-7.846313

$$$$
C98093000	P155917681
  -OEChem-05122015073D

 44 45  0     0  0  0  0  0  0999 V2000
   62.3554  164.4225   -5.2101 C   0  0  0  0  0  0  0  0  0  0  0  0
   61.4791  163.6189   -5.0436 C   0  0  0  0  0  0  0  0  0  0  0  0
   56.5823  154.9614   -6.1541 C   0  0  0  0  0  0  0  0  0  0  0  0
   55.7184  154.6464   -5.0658 C   0  0  0  0  0  0  0  0  0  0  0  0
   56.4087  156.2549   -6.5950 C   0  0  0  0  0  0  0  0  0  0  0  0
   54.9173  155.7113   -4.7161 C   0  0  0  0  0  0  0  0  0  0  0  0
   58.8846  158.6657   -7.2877 C   0  0  0  0  0  0  0  0  0  0  0  0
   60.9462  160.0567   -7.5363 C   0  0  0  0  0  0  0  0  0  0  0  0
   60.4229  158.9043   -5.3501 C   0  0  0  0  0  0  0  0  0  0  0  0
   60.5220  161.3750   -6.8821 C   0  0  0  0  0  0  0  0  0  0  0  0
   60.0064  160.2684   -4.7937 C   0  0  0  0  0  0  0  0  0  0  0  0
   60.3177  158.8320   -6.8729 C   0  0  0  0  0  0  0  0  0  0  0  0
   51.8674  154.8970   -5.2806 C   0  0  0  0  0  0  0  0  0  0  0  0
   60.4068  162.6422   -4.8381 C   0  0  0  0  0  0  0  0  0  0  0  0
   57.1198  156.9658   -7.7099 C   0  0  0  0  0  0  0  0  0  0  0  0
   60.7609  161.3535   -5.4334 N   0  0  0  0  0  0  0  0  0  0  0  0
   58.4619  157.3510   -7.3366 N   0  0  0  0  0  0  0  0  0  0  0  0
   52.2581  156.0254   -4.4234 N   0  0  0  0  0  0  0  0  0  0  0  0
   58.2107  159.6568   -7.5433 O   0  0  0  0  0  0  0  0  0  0  0  0
   53.6308  154.7349   -2.6663 O   0  0  0  0  0  0  0  0  0  0  0  0
   53.9189  157.2254   -2.8631 O   0  0  0  0  0  0  0  0  0  0  0  0
   55.2081  157.0836   -5.6982 S   0  0  0  0  0  0  0  0  0  0  0  0
   53.6816  155.9341   -3.4864 S   0  0  0  0  0  0  0  0  0  0  0  0
   63.1327  165.1352   -5.3584 H   0  0  0  0  0  0  0  0  0  0  0  0
   57.2941  154.2710   -6.5887 H   0  0  0  0  0  0  0  0  0  0  0  0
   55.6873  153.6870   -4.5658 H   0  0  0  0  0  0  0  0  0  0  0  0
   60.6959  160.0874   -8.6038 H   0  0  0  0  0  0  0  0  0  0  0  0
   62.0390  159.9687   -7.4712 H   0  0  0  0  0  0  0  0  0  0  0  0
   61.4624  158.7054   -5.0579 H   0  0  0  0  0  0  0  0  0  0  0  0
   59.8085  158.1230   -4.8863 H   0  0  0  0  0  0  0  0  0  0  0  0
   61.1036  162.1834   -7.3421 H   0  0  0  0  0  0  0  0  0  0  0  0
   59.4648  161.5745   -7.1013 H   0  0  0  0  0  0  0  0  0  0  0  0
   58.9259  160.4138   -4.9179 H   0  0  0  0  0  0  0  0  0  0  0  0
   60.2059  160.2663   -3.7148 H   0  0  0  0  0  0  0  0  0  0  0  0
   60.8344  157.9289   -7.2202 H   0  0  0  0  0  0  0  0  0  0  0  0
   52.2834  153.9654   -4.8882 H   0  0  0  0  0  0  0  0  0  0  0  0
   52.2400  155.0481   -6.2973 H   0  0  0  0  0  0  0  0  0  0  0  0
   50.7782  154.8087   -5.3160 H   0  0  0  0  0  0  0  0  0  0  0  0
   59.4752  162.9999   -5.2875 H   0  0  0  0  0  0  0  0  0  0  0  0
   60.2234  162.5055   -3.7676 H   0  0  0  0  0  0  0  0  0  0  0  0
   57.1870  156.3247   -8.5957 H   0  0  0  0  0  0  0  0  0  0  0  0
   56.5810  157.8724   -8.0047 H   0  0  0  0  0  0  0  0  0  0  0  0
   59.1262  156.6205   -7.0989 H   0  0  0  0  0  0  0  0  0  0  0  0
   51.9139  156.9497   -4.7105 H   0  0  0  0  0  0  0  0  0  0  0  0
  1  2  3  0  0  0  0
  2 14  1  0  0  0  0
  3  4  1  0  0  0  0
  3  5  2  0  0  0  0
  4  6  2  0  0  0  0
  5 15  1  0  0  0  0
  5 22  1  0  0  0  0
  6 22  1  0  0  0  0
  6 23  1  0  0  0  0
  7 12  1  0  0  0  0
  7 17  1  0  0  0  0
  7 19  2  0  0  0  0
  8 10  1  0  0  0  0
  8 12  1  0  0  0  0
  9 11  1  0  0  0  0
  9 12  1  0  0  0  0
 10 16  1  0  0  0  0
 11 16  1  0  0  0  0
 13 18  1  0  0  0  0
 14 16  1  0  0  0  0
 15 17  1  0  0  0  0
 18 23  1  0  0  0  0
 20 23  2  0  0  0  0
 21 23  2  0  0  0  0
  1 24  1  0  0  0  0
  3 25  1  0  0  0  0
  4 26  1  0  0  0  0
  8 27  1  0  0  0  0
  8 28  1  0  0  0  0
  9 29  1  0  0  0  0
  9 30  1  0  0  0  0
 10 31  1  0  0  0  0
 10 32  1  0  0  0  0
 11 33  1  0  0  0  0
 11 34  1  0  0  0  0
 12 35  1  0  0  0  0
 13 36  1  0  0  0  0
 13 37  1  0  0  0  0
 13 38  1  0  0  0  0
 14 39  1  0  0  0  0
 14 40  1  0  0  0  0
 15 41  1  0  0  0  0
 15 42  1  0  0  0  0
 17 43  1  0  0  0  0
 18 44  1  0  0  0  0
M  END
> <FRED Chemgauss4 score>
-7.845230

$$$$
C72197597	P112155099
  -OEChem-05122015073D

 24 24  0     1  0  0  0  0  0999 V2000
   56.3389  155.9785   -5.7474 C   0  0  0  0  0  0  0  0  0  0  0  0
   55.1049  153.9280   -6.0790 C   0  0  0  0  0  0  0  0  0  0  0  0
   57.4695  155.3897   -6.3138 C   0  0  0  0  0  0  0  0  0  0  0  0
   56.2355  153.3393   -6.6454 C   0  0  0  0  0  0  0  0  0  0  0  0
   55.1567  155.2477   -5.6300 C   0  0  0  0  0  0  0  0  0  0  0  0
   57.4178  154.0702   -6.7628 C   0  0  0  0  0  0  0  0  0  0  0  0
   53.4324  155.1333   -3.7783 C   0  0  0  0  0  0  0  0  0  0  0  0
   53.9475  155.8763   -5.0245 C   0  0  2  0  0  0  0  0  0  0  0  0
   58.6266  153.4419   -7.3699 C   0  0  0  0  0  0  0  0  0  0  0  0
   52.8611  155.9980   -5.9853 N   0  0  0  0  0  0  0  0  0  0  0  0
   52.5821  155.9872   -3.0197 O   0  0  0  0  0  0  0  0  0  0  0  0
   59.6658  153.4472   -6.4942 F   0  0  0  0  0  0  0  0  0  0  0  0
   59.0381  154.1408   -8.4602 F   0  0  0  0  0  0  0  0  0  0  0  0
   56.3885  157.0070   -5.3997 H   0  0  0  0  0  0  0  0  0  0  0  0
   54.1875  153.3518   -5.9924 H   0  0  0  0  0  0  0  0  0  0  0  0
   58.3858  155.9671   -6.4027 H   0  0  0  0  0  0  0  0  0  0  0  0
   56.1866  152.3105   -6.9926 H   0  0  0  0  0  0  0  0  0  0  0  0
   52.8447  154.2567   -4.0721 H   0  0  0  0  0  0  0  0  0  0  0  0
   54.2542  154.8047   -3.1327 H   0  0  0  0  0  0  0  0  0  0  0  0
   54.1616  156.9182   -4.7251 H   0  0  0  0  0  0  0  0  0  0  0  0
   58.4522  152.4094   -7.6785 H   0  0  0  0  0  0  0  0  0  0  0  0
   53.0897  156.2067   -6.9354 H   0  0  0  0  0  0  0  0  0  0  0  0
   51.9271  156.0726   -5.6377 H   0  0  0  0  0  0  0  0  0  0  0  0
   52.2873  155.4736   -2.2513 H   0  0  0  0  0  0  0  0  0  0  0  0
  1  3  1  0  0  0  0
  1  5  2  0  0  0  0
  2  4  2  0  0  0  0
  2  5  1  0  0  0  0
  3  6  2  0  0  0  0
  4  6  1  0  0  0  0
  5  8  1  0  0  0  0
  6  9  1  0  0  0  0
  7  8  1  0  0  0  0
  7 11  1  0  0  0  0
  8 10  1  0  0  0  0
  9 12  1  0  0  0  0
  9 13  1  0  0  0  0
  1 14  1  0  0  0  0
  2 15  1  0  0  0  0
  3 16  1  0  0  0  0
  4 17  1  0  0  0  0
  7 18  1  0  0  0  0
  7 19  1  0  0  0  0
  8 20  1  0  0  0  0
  9 21  1  0  0  0  0
 10 22  1  0  0  0  0
 10 23  1  0  0  0  0
 11 24  1  0  0  0  0
M  END
> <FRED Chemgauss4 score>
-7.827541

$$$$
C71322880	P110269358
  -OEChem-05122015073D

 35 35  0     0  0  0  0  0  0999 V2000
   60.1778  162.1882   -4.0525 C   0  0  0  0  0  0  0  0  0  0  0  0
   60.8461  162.9471   -4.7008 C   0  0  0  0  0  0  0  0  0  0  0  0
   59.8458  160.5548   -2.2102 C   0  0  0  0  0  0  0  0  0  0  0  0
   58.8230  159.7433   -1.6396 C   0  0  0  0  0  0  0  0  0  0  0  0
   59.3867  161.2885   -3.2818 C   0  0  0  0  0  0  0  0  0  0  0  0
   57.6209  159.8880   -2.2968 C   0  0  0  0  0  0  0  0  0  0  0  0
   53.0096  155.0453   -3.9690 C   0  0  0  0  0  0  0  0  0  0  0  0
   54.6326  157.7571   -3.1368 C   0  0  0  0  0  0  0  0  0  0  0  0
   51.6104  154.5271   -4.0124 C   0  0  0  0  0  0  0  0  0  0  0  0
   61.6640  163.8756   -5.4955 C   0  0  0  0  0  0  0  0  0  0  0  0
   56.3107  159.2141   -2.0077 C   0  0  0  0  0  0  0  0  0  0  0  0
   54.4059  157.0465   -4.4467 C   0  0  0  0  0  0  0  0  0  0  0  0
   62.9729  164.2065   -4.7919 C   0  0  0  0  0  0  0  0  0  0  0  0
   55.8392  158.4423   -3.1348 N   0  0  0  0  0  0  0  0  0  0  0  0
   53.1187  156.3372   -4.4066 N   0  0  0  0  0  0  0  0  0  0  0  0
   53.9106  154.3191   -3.5659 O   0  0  0  0  0  0  0  0  0  0  0  0
   53.8358  157.7232   -2.2028 O   0  0  0  0  0  0  0  0  0  0  0  0
   62.6991  164.7781   -3.5186 O   0  0  0  0  0  0  0  0  0  0  0  0
   57.7286  160.9980   -3.5962 S   0  0  0  0  0  0  0  0  0  0  0  0
   60.8649  160.5909   -1.8447 H   0  0  0  0  0  0  0  0  0  0  0  0
   58.9659  159.0880   -0.7898 H   0  0  0  0  0  0  0  0  0  0  0  0
   51.3696  154.0464   -4.9742 H   0  0  0  0  0  0  0  0  0  0  0  0
   51.4234  153.7567   -3.2471 H   0  0  0  0  0  0  0  0  0  0  0  0
   50.8230  155.2827   -3.8610 H   0  0  0  0  0  0  0  0  0  0  0  0
   61.8684  163.4274   -6.4746 H   0  0  0  0  0  0  0  0  0  0  0  0
   61.0986  164.7993   -5.6613 H   0  0  0  0  0  0  0  0  0  0  0  0
   56.4053  158.5375   -1.1514 H   0  0  0  0  0  0  0  0  0  0  0  0
   55.5378  159.9486   -1.7580 H   0  0  0  0  0  0  0  0  0  0  0  0
   54.3906  157.7747   -5.2630 H   0  0  0  0  0  0  0  0  0  0  0  0
   55.2087  156.3242   -4.6206 H   0  0  0  0  0  0  0  0  0  0  0  0
   63.5511  163.2909   -4.6317 H   0  0  0  0  0  0  0  0  0  0  0  0
   63.5788  164.9107   -5.3721 H   0  0  0  0  0  0  0  0  0  0  0  0
   56.4200  158.3992   -3.9672 H   0  0  0  0  0  0  0  0  0  0  0  0
   52.2908  156.8175   -4.7111 H   0  0  0  0  0  0  0  0  0  0  0  0
   63.5576  164.9716   -3.1092 H   0  0  0  0  0  0  0  0  0  0  0  0
  1  2  3  0  0  0  0
  1  5  1  0  0  0  0
  2 10  1  0  0  0  0
  3  4  1  0  0  0  0
  3  5  2  0  0  0  0
  4  6  2  0  0  0  0
  5 19  1  0  0  0  0
  6 11  1  0  0  0  0
  6 19  1  0  0  0  0
  7  9  1  0  0  0  0
  7 15  1  0  0  0  0
  7 16  2  0  0  0  0
  8 12  1  0  0  0  0
  8 14  1  0  0  0  0
  8 17  2  0  0  0  0
 10 13  1  0  0  0  0
 11 14  1  0  0  0  0
 12 15  1  0  0  0  0
 13 18  1  0  0  0  0
  3 20  1  0  0  0  0
  4 21  1  0  0  0  0
  9 22  1  0  0  0  0
  9 23  1  0  0  0  0
  9 24  1  0  0  0  0
 10 25  1  0  0  0  0
 10 26  1  0  0  0  0
 11 27  1  0  0  0  0
 11 28  1  0  0  0  0
 12 29  1  0  0  0  0
 12 30  1  0  0  0  0
 13 31  1  0  0  0  0
 13 32  1  0  0  0  0
 14 33  1  0  0  0  0
 15 34  1  0  0  0  0
 18 35  1  0  0  0  0
M  END
> <FRED Chemgauss4 score>
-7.822786

$$$$
C97535031	P154539735
  -OEChem-05122015073D

 40 42  0     1  0  0  0  0  0999 V2000
   55.9101  153.8994   -5.9157 C   0  0  0  0  0  0  0  0  0  0  0  0
   57.0770  153.5065   -6.5688 C   0  0  0  0  0  0  0  0  0  0  0  0
   56.6105  156.1897   -6.1090 C   0  0  0  0  0  0  0  0  0  0  0  0
   60.0099  154.9813   -8.0165 C   0  0  0  0  0  0  0  0  0  0  0  0
   59.7784  156.3118   -7.7886 C   0  0  0  0  0  0  0  0  0  0  0  0
   55.6759  155.2467   -5.6847 C   0  0  0  0  0  0  0  0  0  0  0  0
   58.0174  154.4407   -6.9967 C   0  0  0  0  0  0  0  0  0  0  0  0
   57.7797  155.8076   -6.7625 C   0  0  0  0  0  0  0  0  0  0  0  0
   56.3078  160.3111   -2.2341 C   0  0  0  0  0  0  0  0  0  0  0  0
   56.7146  158.9021   -2.5854 C   0  0  0  0  0  0  0  0  0  0  0  0
   54.8282  160.2986   -2.5541 C   0  0  0  0  0  0  0  0  0  0  0  0
   55.5054  158.1121   -2.1156 C   0  0  2  0  0  0  0  0  0  0  0  0
   55.3206  156.7968   -2.8471 C   0  0  0  0  0  0  0  0  0  0  0  0
   54.6190  156.9995   -4.1940 C   0  0  0  0  0  0  0  0  0  0  0  0
   54.4331  155.6846   -4.9878 C   0  0  1  0  0  0  0  0  0  0  0  0
   59.1357  154.0369   -7.6246 N   0  0  0  0  0  0  0  0  0  0  0  0
   58.6662  156.7361   -7.1622 N   0  0  0  0  0  0  0  0  0  0  0  0
   52.1109  155.7925   -5.2354 N   0  0  0  0  0  0  0  0  0  0  0  0
   53.3498  155.8142   -5.9469 N   0  0  0  0  0  0  0  0  0  0  0  0
   54.3641  158.9579   -2.3364 O   0  0  0  0  0  0  0  0  0  0  0  0
   55.1957  153.1473   -5.5931 H   0  0  0  0  0  0  0  0  0  0  0  0
   57.2482  152.4461   -6.7436 H   0  0  0  0  0  0  0  0  0  0  0  0
   56.4224  157.2465   -5.9255 H   0  0  0  0  0  0  0  0  0  0  0  0
   60.9016  154.6290   -8.5191 H   0  0  0  0  0  0  0  0  0  0  0  0
   60.4753  157.0798   -8.0993 H   0  0  0  0  0  0  0  0  0  0  0  0
   56.4576  160.4853   -1.1619 H   0  0  0  0  0  0  0  0  0  0  0  0
   56.8574  161.0788   -2.7849 H   0  0  0  0  0  0  0  0  0  0  0  0
   56.8439  158.8167   -3.6712 H   0  0  0  0  0  0  0  0  0  0  0  0
   57.6434  158.5849   -2.1032 H   0  0  0  0  0  0  0  0  0  0  0  0
   54.2578  160.9923   -1.9300 H   0  0  0  0  0  0  0  0  0  0  0  0
   54.6484  160.5460   -3.6057 H   0  0  0  0  0  0  0  0  0  0  0  0
   55.5682  157.9306   -1.0355 H   0  0  0  0  0  0  0  0  0  0  0  0
   56.3021  156.3331   -2.9970 H   0  0  0  0  0  0  0  0  0  0  0  0
   54.7319  156.1175   -2.2196 H   0  0  0  0  0  0  0  0  0  0  0  0
   53.6326  157.4476   -4.0156 H   0  0  0  0  0  0  0  0  0  0  0  0
   55.1912  157.7226   -4.7898 H   0  0  0  0  0  0  0  0  0  0  0  0
   54.0872  154.9109   -4.2773 H   0  0  0  0  0  0  0  0  0  0  0  0
   51.5638  154.9846   -5.5316 H   0  0  0  0  0  0  0  0  0  0  0  0
   52.3014  155.6513   -4.2442 H   0  0  0  0  0  0  0  0  0  0  0  0
   53.4330  156.7025   -6.4424 H   0  0  0  0  0  0  0  0  0  0  0  0
  1  2  1  0  0  0  0
  1  6  2  0  0  0  0
  2  7  2  0  0  0  0
  3  6  1  0  0  0  0
  3  8  2  0  0  0  0
  4  5  1  0  0  0  0
  4 16  2  0  0  0  0
  5 17  2  0  0  0  0
  6 15  1  0  0  0  0
  7  8  1  0  0  0  0
  7 16  1  0  0  0  0
  8 17  1  0  0  0  0
  9 10  1  0  0  0  0
  9 11  1  0  0  0  0
 10 12  1  0  0  0  0
 11 20  1  0  0  0  0
 12 13  1  0  0  0  0
 12 20  1  0  0  0  0
 13 14  1  0  0  0  0
 14 15  1  0  0  0  0
 15 19  1  0  0  0  0
 18 19  1  0  0  0  0
  1 21  1  0  0  0  0
  2 22  1  0  0  0  0
  3 23  1  0  0  0  0
  4 24  1  0  0  0  0
  5 25  1  0  0  0  0
  9 26  1  0  0  0  0
  9 27  1  0  0  0  0
 10 28  1  0  0  0  0
 10 29  1  0  0  0  0
 11 30  1  0  0  0  0
 11 31  1  0  0  0  0
 12 32  1  0  0  0  0
 13 33  1  0  0  0  0
 13 34  1  0  0  0  0
 14 35  1  0  0  0  0
 14 36  1  0  0  0  0
 15 37  1  0  0  0  0
 18 38  1  0  0  0  0
 18 39  1  0  0  0  0
 19 40  1  0  0  0  0
M  END
> <FRED Chemgauss4 score>
-7.815283

$$$$
C86276238	P135094255
  -OEChem-05122015073D

 29 29  0     0  0  0  0  0  0999 V2000
   54.4077  157.2466   -3.1989 C   0  0  0  0  0  0  0  0  0  0  0  0
   53.4752  156.0746   -3.2188 C   0  0  0  0  0  0  0  0  0  0  0  0
   57.6999  156.6848   -5.9384 C   0  0  0  0  0  0  0  0  0  0  0  0
   58.6807  153.8588   -7.5667 C   0  0  0  0  0  0  0  0  0  0  0  0
   60.1296  154.2496   -7.6071 C   0  0  0  0  0  0  0  0  0  0  0  0
   59.0690  155.3105   -7.4971 C   0  0  0  0  0  0  0  0  0  0  0  0
   57.8073  157.4159   -4.6122 C   0  0  0  0  0  0  0  0  0  0  0  0
   56.5037  158.0937   -4.2130 C   0  0  0  0  0  0  0  0  0  0  0  0
   51.9849  154.8572   -4.6018 N   0  0  0  0  0  0  0  0  0  0  0  0
   55.4625  157.1052   -4.0731 N   0  0  0  0  0  0  0  0  0  0  0  0
   52.8852  155.8899   -4.4454 N   0  0  0  0  0  0  0  0  0  0  0  0
   58.8971  156.0749   -6.2831 N   0  0  0  0  0  0  0  0  0  0  0  0
   54.1606  158.1610   -2.4292 O   0  0  0  0  0  0  0  0  0  0  0  0
   53.3295  155.4433   -2.1840 O   0  0  0  0  0  0  0  0  0  0  0  0
   56.6692  156.6497   -6.6050 O   0  0  0  0  0  0  0  0  0  0  0  0
   58.2337  153.4870   -8.4806 H   0  0  0  0  0  0  0  0  0  0  0  0
   58.3082  153.3925   -6.6628 H   0  0  0  0  0  0  0  0  0  0  0  0
   60.7319  154.0464   -6.7301 H   0  0  0  0  0  0  0  0  0  0  0  0
   60.6538  154.1390   -8.5484 H   0  0  0  0  0  0  0  0  0  0  0  0
   58.8861  155.9071   -8.3842 H   0  0  0  0  0  0  0  0  0  0  0  0
   58.1063  156.6933   -3.8427 H   0  0  0  0  0  0  0  0  0  0  0  0
   58.6091  158.1607   -4.6922 H   0  0  0  0  0  0  0  0  0  0  0  0
   56.2055  158.8291   -4.9680 H   0  0  0  0  0  0  0  0  0  0  0  0
   56.6233  158.6301   -3.2655 H   0  0  0  0  0  0  0  0  0  0  0  0
   51.2843  155.1741   -5.2707 H   0  0  0  0  0  0  0  0  0  0  0  0
   51.4975  154.7526   -3.7129 H   0  0  0  0  0  0  0  0  0  0  0  0
   55.5250  156.2657   -4.6428 H   0  0  0  0  0  0  0  0  0  0  0  0
   53.1081  156.5029   -5.2232 H   0  0  0  0  0  0  0  0  0  0  0  0
   59.6887  156.1701   -5.6537 H   0  0  0  0  0  0  0  0  0  0  0  0
  1  2  1  0  0  0  0
  1 10  1  0  0  0  0
  1 13  2  0  0  0  0
  2 11  1  0  0  0  0
  2 14  2  0  0  0  0
  3  7  1  0  0  0  0
  3 12  1  0  0  0  0
  3 15  2  0  0  0  0
  4  5  1  0  0  0  0
  4  6  1  0  0  0  0
  5  6  1  0  0  0  0
  6 12  1  0  0  0  0
  7  8  1  0  0  0  0
  8 10  1  0  0  0  0
  9 11  1  0  0  0  0
  4 16  1  0  0  0  0
  4 17  1  0  0  0  0
  5 18  1  0  0  0  0
  5 19  1  0  0  0  0
  6 20  1  0  0  0  0
  7 21  1  0  0  0  0
  7 22  1  0  0  0  0
  8 23  1  0  0  0  0
  8 24  1  0  0  0  0
  9 25  1  0  0  0  0
  9 26  1  0  0  0  0
 10 27  1  0  0  0  0
 11 28  1  0  0  0  0
 12 29  1  0  0  0  0
M  END
> <FRED Chemgauss4 score>
-7.814190

$$$$
C90644921	P141781001
  -OEChem-05122015073D

 35 37  0     1  0  0  0  0  0999 V2000
   55.1319  154.5383   -5.8822 C   0  0  0  0  0  0  0  0  0  0  0  0
   55.9062  156.6366   -4.3302 C   0  0  0  0  0  0  0  0  0  0  0  0
   56.3433  155.1299   -6.0195 C   0  0  0  0  0  0  0  0  0  0  0  0
   54.2062  155.0462   -4.8618 C   0  0  0  0  0  0  0  0  0  0  0  0
   53.6310  156.3992   -3.2372 C   0  0  0  0  0  0  0  0  0  0  0  0
   60.3040  155.0836   -8.0578 C   0  0  0  0  0  0  0  0  0  0  0  0
   59.2914  153.9204   -7.9892 C   0  0  2  0  0  0  0  0  0  0  0  0
   58.5890  154.6893   -6.8502 C   0  0  1  0  0  0  0  0  0  0  0  0
   59.1984  155.9859   -7.4496 C   0  0  1  0  0  0  0  0  0  0  0  0
   59.9069  158.5671   -8.2426 C   0  0  0  0  0  0  0  0  0  0  0  0
   60.5681  157.8593   -7.0792 C   0  0  0  0  0  0  0  0  0  0  0  0
   56.7367  156.2053   -5.2225 N   0  0  0  0  0  0  0  0  0  0  0  0
   53.0148  154.6371   -4.5615 N   0  0  0  0  0  0  0  0  0  0  0  0
   52.6223  155.4667   -3.5430 N   0  0  0  0  0  0  0  0  0  0  0  0
   54.6571  156.0901   -4.1275 N   0  0  0  0  0  0  0  0  0  0  0  0
   59.9557  152.7478   -7.4360 N   0  0  0  0  0  0  0  0  0  0  0  0
   57.1722  154.6480   -6.9583 N   0  0  0  0  0  0  0  0  0  0  0  0
   53.5994  157.2718   -2.3837 O   0  0  0  0  0  0  0  0  0  0  0  0
   59.6388  156.9666   -6.4944 O   0  0  0  0  0  0  0  0  0  0  0  0
   54.8105  153.7023   -6.4927 H   0  0  0  0  0  0  0  0  0  0  0  0
   56.1467  157.4800   -3.6657 H   0  0  0  0  0  0  0  0  0  0  0  0
   61.1926  154.9939   -7.4203 H   0  0  0  0  0  0  0  0  0  0  0  0
   60.6248  155.3593   -9.0668 H   0  0  0  0  0  0  0  0  0  0  0  0
   58.7146  153.7542   -8.9051 H   0  0  0  0  0  0  0  0  0  0  0  0
   58.9270  154.4679   -5.8304 H   0  0  0  0  0  0  0  0  0  0  0  0
   58.5763  156.4581   -8.2213 H   0  0  0  0  0  0  0  0  0  0  0  0
   59.5852  157.8506   -9.0034 H   0  0  0  0  0  0  0  0  0  0  0  0
   59.0360  159.1372   -7.9030 H   0  0  0  0  0  0  0  0  0  0  0  0
   60.5970  159.2832   -8.7011 H   0  0  0  0  0  0  0  0  0  0  0  0
   60.8875  158.5816   -6.3219 H   0  0  0  0  0  0  0  0  0  0  0  0
   61.4376  157.2895   -7.4203 H   0  0  0  0  0  0  0  0  0  0  0  0
   51.7112  155.3605   -3.1154 H   0  0  0  0  0  0  0  0  0  0  0  0
   60.8431  152.4861   -7.8117 H   0  0  0  0  0  0  0  0  0  0  0  0
   59.4241  152.1341   -6.8544 H   0  0  0  0  0  0  0  0  0  0  0  0
   56.7194  154.2331   -7.7869 H   0  0  0  0  0  0  0  0  0  0  0  0
  1  3  2  0  0  0  0
  1  4  1  0  0  0  0
  2 12  2  0  0  0  0
  2 15  1  0  0  0  0
  3 12  1  0  0  0  0
  3 17  1  0  0  0  0
  4 13  2  0  0  0  0
  4 15  1  0  0  0  0
  5 14  1  0  0  0  0
  5 15  1  0  0  0  0
  5 18  2  0  0  0  0
  6  7  1  0  0  0  0
  6  9  1  0  0  0  0
  7  8  1  0  0  0  0
  7 16  1  0  0  0  0
  8  9  1  0  0  0  0
  8 17  1  0  0  0  0
  9 19  1  0  0  0  0
 10 11  1  0  0  0  0
 11 19  1  0  0  0  0
 13 14  1  0  0  0  0
  1 20  1  0  0  0  0
  2 21  1  0  0  0  0
  6 22  1  0  0  0  0
  6 23  1  0  0  0  0
  7 24  1  0  0  0  0
  8 25  1  0  0  0  0
  9 26  1  0  0  0  0
 10 27  1  0  0  0  0
 10 28  1  0  0  0  0
 10 29  1  0  0  0  0
 11 30  1  0  0  0  0
 11 31  1  0  0  0  0
 14 32  1  0  0  0  0
 16 33  1  0  0  0  0
 16 34  1  0  0  0  0
 17 35  1  0  0  0  0
M  END
> <FRED Chemgauss4 score>
-7.804707

$$$$
C94468140	P148078016
  -OEChem-05122015073D

 44 45  0     1  0  0  0  0  0999 V2000
   53.6271  155.8792   -3.5743 C   0  0  0  0  0  0  0  0  0  0  0  0
   61.2519  162.2186   -6.9286 C   0  0  0  0  0  0  0  0  0  0  0  0
   60.1019  161.2139   -7.0611 C   0  0  0  0  0  0  0  0  0  0  0  0
   61.1610  162.7630   -5.5007 C   0  0  0  0  0  0  0  0  0  0  0  0
   58.1910  160.5712   -5.4457 C   0  0  0  0  0  0  0  0  0  0  0  0
   59.5601  162.3897   -3.6610 C   0  0  0  0  0  0  0  0  0  0  0  0
   59.6358  161.0203   -5.6292 C   0  0  2  0  0  0  0  0  0  0  0  0
   58.1005  161.9376   -3.3933 C   0  0  1  0  0  0  0  0  0  0  0  0
   57.1091  163.0363   -3.8153 C   0  0  0  0  0  0  0  0  0  0  0  0
   55.0213  156.4755   -3.6788 C   0  0  0  0  0  0  0  0  0  0  0  0
   55.0428  158.0035   -3.6320 C   0  0  0  0  0  0  0  0  0  0  0  0
   56.4551  158.5706   -3.8222 C   0  0  0  0  0  0  0  0  0  0  0  0
   56.5086  160.0993   -3.7711 C   0  0  0  0  0  0  0  0  0  0  0  0
   59.8195  162.3697   -5.0940 N   0  0  2  0  0  0  0  0  0  0  0  0
   57.8515  160.6152   -4.0133 N   0  0  1  0  0  0  0  0  0  0  0  0
   51.7694  155.2153   -4.9108 N   0  0  0  0  0  0  0  0  0  0  0  0
   53.0498  155.7218   -4.8234 N   0  0  0  0  0  0  0  0  0  0  0  0
   53.0926  155.6027   -2.5033 O   0  0  0  0  0  0  0  0  0  0  0  0
   62.2198  161.7338   -7.0963 H   0  0  0  0  0  0  0  0  0  0  0  0
   61.1405  163.0180   -7.6695 H   0  0  0  0  0  0  0  0  0  0  0  0
   59.3096  161.6381   -7.6902 H   0  0  0  0  0  0  0  0  0  0  0  0
   60.4320  160.2769   -7.5202 H   0  0  0  0  0  0  0  0  0  0  0  0
   61.9323  162.2970   -4.8750 H   0  0  0  0  0  0  0  0  0  0  0  0
   61.2980  163.8483   -5.4732 H   0  0  0  0  0  0  0  0  0  0  0  0
   57.5060  161.1950   -6.0339 H   0  0  0  0  0  0  0  0  0  0  0  0
   58.0938  159.5449   -5.8209 H   0  0  0  0  0  0  0  0  0  0  0  0
   59.7115  163.4012   -3.2653 H   0  0  0  0  0  0  0  0  0  0  0  0
   60.2542  161.7275   -3.1258 H   0  0  0  0  0  0  0  0  0  0  0  0
   60.3084  160.3072   -5.1278 H   0  0  0  0  0  0  0  0  0  0  0  0
   58.0064  161.8175   -2.3058 H   0  0  0  0  0  0  0  0  0  0  0  0
   57.1739  163.1835   -4.8883 H   0  0  0  0  0  0  0  0  0  0  0  0
   57.3597  163.9597   -3.3039 H   0  0  0  0  0  0  0  0  0  0  0  0
   56.1027  162.7316   -3.5481 H   0  0  0  0  0  0  0  0  0  0  0  0
   55.4389  156.1446   -4.6377 H   0  0  0  0  0  0  0  0  0  0  0  0
   55.6541  156.0620   -2.8847 H   0  0  0  0  0  0  0  0  0  0  0  0
   54.6133  158.3519   -2.6861 H   0  0  0  0  0  0  0  0  0  0  0  0
   54.3988  158.3829   -4.4349 H   0  0  0  0  0  0  0  0  0  0  0  0
   56.8395  158.2496   -4.7985 H   0  0  0  0  0  0  0  0  0  0  0  0
   57.1348  158.1559   -3.0682 H   0  0  0  0  0  0  0  0  0  0  0  0
   56.1460  160.4588   -2.8018 H   0  0  0  0  0  0  0  0  0  0  0  0
   55.8390  160.5022   -4.5388 H   0  0  0  0  0  0  0  0  0  0  0  0
   51.7252  154.6701   -5.7707 H   0  0  0  0  0  0  0  0  0  0  0  0
   51.6631  154.5472   -4.1486 H   0  0  0  0  0  0  0  0  0  0  0  0
   53.5298  155.9657   -5.6840 H   0  0  0  0  0  0  0  0  0  0  0  0
  1 10  1  0  0  0  0
  1 17  1  0  0  0  0
  1 18  2  0  0  0  0
  2  3  1  0  0  0  0
  2  4  1  0  0  0  0
  3  7  1  0  0  0  0
  4 14  1  0  0  0  0
  5  7  1  0  0  0  0
  5 15  1  0  0  0  0
  6  8  1  0  0  0  0
  6 14  1  0  0  0  0
  7 14  1  0  0  0  0
  8  9  1  0  0  0  0
  8 15  1  0  0  0  0
 10 11  1  0  0  0  0
 11 12  1  0  0  0  0
 12 13  1  0  0  0  0
 13 15  1  0  0  0  0
 16 17  1  0  0  0  0
  2 19  1  0  0  0  0
  2 20  1  0  0  0  0
  3 21  1  0  0  0  0
  3 22  1  0  0  0  0
  4 23  1  0  0  0  0
  4 24  1  0  0  0  0
  5 25  1  0  0  0  0
  5 26  1  0  0  0  0
  6 27  1  0  0  0  0
  6 28  1  0  0  0  0
  7 29  1  0  0  0  0
  8 30  1  0  0  0  0
  9 31  1  0  0  0  0
  9 32  1  0  0  0  0
  9 33  1  0  0  0  0
 10 34  1  0  0  0  0
 10 35  1  0  0  0  0
 11 36  1  0  0  0  0
 11 37  1  0  0  0  0
 12 38  1  0  0  0  0
 12 39  1  0  0  0  0
 13 40  1  0  0  0  0
 13 41  1  0  0  0  0
 16 42  1  0  0  0  0
 16 43  1  0  0  0  0
 17 44  1  0  0  0  0
M  END
> <FRED Chemgauss4 score>
-7.800971

$$$$
AOC	P10000032
  -OEChem-05122015073D

 15 15  0     0  0  0  0  0  0999 V2000
   53.6485  155.9425   -3.5605 C   0  0  0  0  0  0  0  0  0  0  0  0
   55.3548  156.0487   -5.4630 C   0  0  0  0  0  0  0  0  0  0  0  0
   54.4017  154.2256   -5.3014 C   0  0  0  0  0  0  0  0  0  0  0  0
   53.9519  155.6564   -4.9869 C   0  0  0  0  0  0  0  0  0  0  0  0
   52.8950  156.1283   -5.9007 N   0  3  0  0  0  0  0  0  0  0  0  0
   53.9257  155.0125   -2.7533 O   0  5  0  0  0  0  0  0  0  0  0  0
   53.1511  157.0829   -3.3431 O   0  0  0  0  0  0  0  0  0  0  0  0
   55.7618  154.6611   -5.5415 O   0  0  0  0  0  0  0  0  0  0  0  0
   55.4158  156.5310   -6.4443 H   0  0  0  0  0  0  0  0  0  0  0  0
   55.9713  156.6080   -4.7522 H   0  0  0  0  0  0  0  0  0  0  0  0
   54.3499  153.5074   -4.4770 H   0  0  0  0  0  0  0  0  0  0  0  0
   53.9714  153.7697   -6.1993 H   0  0  0  0  0  0  0  0  0  0  0  0
   52.0067  156.2762   -5.4033 H   0  0  0  0  0  0  0  0  0  0  0  0
   52.7183  155.4486   -6.6527 H   0  0  0  0  0  0  0  0  0  0  0  0
   53.1527  157.0200   -6.3446 H   0  0  0  0  0  0  0  0  0  0  0  0
  1  4  1  0  0  0  0
  1  6  1  0  0  0  0
  1  7  2  0  0  0  0
  2  4  1  0  0  0  0
  2  8  1  0  0  0  0
  3  4  1  0  0  0  0
  3  8  1  0  0  0  0
  4  5  1  0  0  0  0
  2  9  1  0  0  0  0
  2 10  1  0  0  0  0
  3 11  1  0  0  0  0
  3 12  1  0  0  0  0
  5 13  1  0  0  0  0
  5 14  1  0  0  0  0
  5 15  1  0  0  0  0
M  CHG  2   5   1   6  -1
M  END
> <FRED Chemgauss4 score>
-7.798562

$$$$
C93779559	P146920627
  -OEChem-05122015073D

 43 44  0     1  0  0  0  0  0999 V2000
   54.8425  155.6581   -5.1356 C   0  0  0  0  0  0  0  0  0  0  0  0
   53.4845  156.0416   -3.4809 C   0  0  0  0  0  0  0  0  0  0  0  0
   57.1505  159.8096   -5.1558 C   0  0  0  0  0  0  0  0  0  0  0  0
   59.1590  158.0919   -6.7876 C   0  0  0  0  0  0  0  0  0  0  0  0
   58.4373  156.7454   -6.7670 C   0  0  0  0  0  0  0  0  0  0  0  0
   59.3558  158.6515   -5.3772 C   0  0  0  0  0  0  0  0  0  0  0  0
   57.2907  157.3823   -4.5998 C   0  0  0  0  0  0  0  0  0  0  0  0
   57.1015  156.8452   -6.0262 C   0  0  2  0  0  0  0  0  0  0  0  0
   58.0488  158.7164   -4.5821 C   0  0  2  0  0  0  0  0  0  0  0  0
   59.8940  160.2179   -1.6512 C   0  0  0  0  0  0  0  0  0  0  0  0
   58.2032  161.4503   -3.0642 C   0  0  0  0  0  0  0  0  0  0  0  0
   55.7767  155.2457   -2.8037 C   0  0  0  0  0  0  0  0  0  0  0  0
   59.1674  160.2776   -2.9852 C   0  0  0  0  0  0  0  0  0  0  0  0
   53.7602  156.0462   -5.7401 N   0  0  0  0  0  0  0  0  0  0  0  0
   52.8865  156.2950   -4.7234 N   0  0  0  0  0  0  0  0  0  0  0  0
   54.7676  155.6251   -3.7790 N   0  0  0  0  0  0  0  0  0  0  0  0
   58.3969  159.0231   -3.1573 N   0  3  0  0  0  0  0  0  0  0  0  0
   56.0391  159.9539   -4.5751 O   0  5  0  0  0  0  0  0  0  0  0  0
   52.9601  156.1702   -2.3842 O   0  0  0  0  0  0  0  0  0  0  0  0
   57.6367  160.4314   -6.1417 O   0  0  0  0  0  0  0  0  0  0  0  0
   56.2985  155.2064   -5.9677 S   0  0  0  0  0  0  0  0  0  0  0  0
   60.1349  157.9765   -7.2733 H   0  0  0  0  0  0  0  0  0  0  0  0
   58.5878  158.8043   -7.3950 H   0  0  0  0  0  0  0  0  0  0  0  0
   58.2784  156.4133   -7.8004 H   0  0  0  0  0  0  0  0  0  0  0  0
   59.0892  156.0037   -6.2865 H   0  0  0  0  0  0  0  0  0  0  0  0
   60.0784  158.0112   -4.8533 H   0  0  0  0  0  0  0  0  0  0  0  0
   59.8175  159.6445   -5.4501 H   0  0  0  0  0  0  0  0  0  0  0  0
   56.3115  157.4992   -4.1153 H   0  0  0  0  0  0  0  0  0  0  0  0
   57.8488  156.6445   -4.0053 H   0  0  0  0  0  0  0  0  0  0  0  0
   56.4281  157.5085   -6.5815 H   0  0  0  0  0  0  0  0  0  0  0  0
   59.1774  160.1808   -0.8239 H   0  0  0  0  0  0  0  0  0  0  0  0
   60.5354  159.3322   -1.5814 H   0  0  0  0  0  0  0  0  0  0  0  0
   60.5243  161.1022   -1.5078 H   0  0  0  0  0  0  0  0  0  0  0  0
   57.4850  161.4144   -2.2383 H   0  0  0  0  0  0  0  0  0  0  0  0
   57.6381  161.4443   -4.0026 H   0  0  0  0  0  0  0  0  0  0  0  0
   58.7389  162.4035   -2.9995 H   0  0  0  0  0  0  0  0  0  0  0  0
   56.3630  156.1203   -2.5101 H   0  0  0  0  0  0  0  0  0  0  0  0
   56.4505  154.4969   -3.2288 H   0  0  0  0  0  0  0  0  0  0  0  0
   55.3022  154.8249   -1.9132 H   0  0  0  0  0  0  0  0  0  0  0  0
   59.8849  160.3146   -3.8113 H   0  0  0  0  0  0  0  0  0  0  0  0
   51.9465  156.6160   -4.9171 H   0  0  0  0  0  0  0  0  0  0  0  0
   57.5288  159.0738   -2.6136 H   0  0  0  0  0  0  0  0  0  0  0  0
   58.9305  158.2348   -2.7756 H   0  0  0  0  0  0  0  0  0  0  0  0
  1 14  2  0  0  0  0
  1 16  1  0  0  0  0
  1 21  1  0  0  0  0
  2 15  1  0  0  0  0
  2 16  1  0  0  0  0
  2 19  2  0  0  0  0
  3  9  1  0  0  0  0
  3 18  1  0  0  0  0
  3 20  2  0  0  0  0
  4  5  1  0  0  0  0
  4  6  1  0  0  0  0
  5  8  1  0  0  0  0
  6  9  1  0  0  0  0
  7  8  1  0  0  0  0
  7  9  1  0  0  0  0
  8 21  1  0  0  0  0
  9 17  1  0  0  0  0
 10 13  1  0  0  0  0
 11 13  1  0  0  0  0
 12 16  1  0  0  0  0
 13 17  1  0  0  0  0
 14 15  1  0  0  0  0
  4 22  1  0  0  0  0
  4 23  1  0  0  0  0
  5 24  1  0  0  0  0
  5 25  1  0  0  0  0
  6 26  1  0  0  0  0
  6 27  1  0  0  0  0
  7 28  1  0  0  0  0
  7 29  1  0  0  0  0
  8 30  1  0  0  0  0
 10 31  1  0  0  0  0
 10 32  1  0  0  0  0
 10 33  1  0  0  0  0
 11 34  1  0  0  0  0
 11 35  1  0  0  0  0
 11 36  1  0  0  0  0
 12 37  1  0  0  0  0
 12 38  1  0  0  0  0
 12 39  1  0  0  0  0
 13 40  1  0  0  0  0
 15 41  1  0  0  0  0
 17 42  1  0  0  0  0
 17 43  1  0  0  0  0
M  CHG  2  17   1  18  -1
M  END
> <FRED Chemgauss4 score>
-7.779702

$$$$
C38536703	P150889820
  -OEChem-05122015073D

 35 36  0     1  0  0  0  0  0999 V2000
   59.8974  161.0302   -2.1488 C   0  0  0  0  0  0  0  0  0  0  0  0
   59.6139  159.9058   -1.4736 C   0  0  0  0  0  0  0  0  0  0  0  0
   58.8654  161.8999   -2.6858 C   0  0  0  0  0  0  0  0  0  0  0  0
   57.5958  161.4771   -2.8152 C   0  0  0  0  0  0  0  0  0  0  0  0
   56.2704  159.1951   -0.5511 C   0  0  0  0  0  0  0  0  0  0  0  0
   55.9738  159.8269   -1.6931 C   0  0  0  0  0  0  0  0  0  0  0  0
   58.1727  159.6134   -1.3428 C   0  0  0  0  0  0  0  0  0  0  0  0
   54.1684  155.3065   -5.7100 C   0  0  0  0  0  0  0  0  0  0  0  0
   54.4362  157.9373   -3.3866 C   0  0  0  0  0  0  0  0  0  0  0  0
   57.2344  160.0733   -2.4530 C   0  0  2  0  0  0  0  0  0  0  0  0
   54.6285  160.1616   -2.2224 C   0  0  0  0  0  0  0  0  0  0  0  0
   55.0603  155.8691   -4.6273 C   0  0  0  0  0  0  0  0  0  0  0  0
   54.3831  159.4512   -3.5543 C   0  0  2  0  0  0  0  0  0  0  0  0
   57.6121  159.0379   -0.3233 N   0  0  0  0  0  0  0  0  0  0  0  0
   53.0042  156.0295   -5.8576 N   0  0  0  0  0  0  0  0  0  0  0  0
   53.0977  159.7950   -4.1082 N   0  0  0  0  0  0  0  0  0  0  0  0
   54.8757  157.2995   -4.5380 N   0  0  0  0  0  0  0  0  0  0  0  0
   54.4656  154.3430   -6.4109 O   0  0  0  0  0  0  0  0  0  0  0  0
   54.1584  157.3728   -2.3306 O   0  0  0  0  0  0  0  0  0  0  0  0
   60.9268  161.3535   -2.2634 H   0  0  0  0  0  0  0  0  0  0  0  0
   60.3562  159.2870   -0.9905 H   0  0  0  0  0  0  0  0  0  0  0  0
   59.1516  162.9021   -2.9849 H   0  0  0  0  0  0  0  0  0  0  0  0
   56.8468  162.1340   -3.2453 H   0  0  0  0  0  0  0  0  0  0  0  0
   55.5550  158.8529    0.1831 H   0  0  0  0  0  0  0  0  0  0  0  0
   57.3038  159.4060   -3.3189 H   0  0  0  0  0  0  0  0  0  0  0  0
   54.5505  161.2513   -2.3370 H   0  0  0  0  0  0  0  0  0  0  0  0
   53.8892  159.8498   -1.4725 H   0  0  0  0  0  0  0  0  0  0  0  0
   56.1134  155.6768   -4.8498 H   0  0  0  0  0  0  0  0  0  0  0  0
   54.7944  155.4222   -3.6656 H   0  0  0  0  0  0  0  0  0  0  0  0
   55.1290  159.7512   -4.3003 H   0  0  0  0  0  0  0  0  0  0  0  0
   52.8175  156.8412   -5.2782 H   0  0  0  0  0  0  0  0  0  0  0  0
   52.2958  155.7856   -6.5424 H   0  0  0  0  0  0  0  0  0  0  0  0
   52.6564  159.1580   -4.7498 H   0  0  0  0  0  0  0  0  0  0  0  0
   52.7605  160.7379   -4.0103 H   0  0  0  0  0  0  0  0  0  0  0  0
   55.0772  157.8652   -5.3572 H   0  0  0  0  0  0  0  0  0  0  0  0
  1  2  2  0  0  0  0
  1  3  1  0  0  0  0
  2  7  1  0  0  0  0
  3  4  2  0  0  0  0
  4 10  1  0  0  0  0
  5  6  2  0  0  0  0
  5 14  1  0  0  0  0
  6 10  1  0  0  0  0
  6 11  1  0  0  0  0
  7 10  1  0  0  0  0
  7 14  2  0  0  0  0
  8 12  1  0  0  0  0
  8 15  1  0  0  0  0
  8 18  2  0  0  0  0
  9 13  1  0  0  0  0
  9 17  1  0  0  0  0
  9 19  2  0  0  0  0
 11 13  1  0  0  0  0
 12 17  1  0  0  0  0
 13 16  1  0  0  0  0
  1 20  1  0  0  0  0
  2 21  1  0  0  0  0
  3 22  1  0  0  0  0
  4 23  1  0  0  0  0
  5 24  1  0  0  0  0
 10 25  1  0  0  0  0
 11 26  1  0  0  0  0
 11 27  1  0  0  0  0
 12 28  1  0  0  0  0
 12 29  1  0  0  0  0
 13 30  1  0  0  0  0
 15 31  1  0  0  0  0
 15 32  1  0  0  0  0
 16 33  1  0  0  0  0
 16 34  1  0  0  0  0
 17 35  1  0  0  0  0
M  END
> <FRED Chemgauss4 score>
-7.777613

$$$$
C87666352	P137137147
  -OEChem-05122015073D

 31 31  0     1  0  0  0  0  0999 V2000
   56.7645  154.2478   -7.1033 C   0  0  0  0  0  0  0  0  0  0  0  0
   55.4616  154.4575   -6.8797 C   0  0  0  0  0  0  0  0  0  0  0  0
   56.5942  156.1776   -5.8984 C   0  0  0  0  0  0  0  0  0  0  0  0
   60.9561  155.9267   -7.9814 C   0  0  0  0  0  0  0  0  0  0  0  0
   59.4378  155.8354   -7.9242 C   0  0  0  0  0  0  0  0  0  0  0  0
   58.9265  155.3694   -6.5663 C   0  0  0  0  0  0  0  0  0  0  0  0
   54.0429  156.1559   -5.7293 C   0  0  0  0  0  0  0  0  0  0  0  0
   54.0923  155.8586   -3.1991 C   0  0  0  0  0  0  0  0  0  0  0  0
   53.4580  155.4240   -4.5206 C   0  0  1  0  0  0  0  0  0  0  0  0
   57.4901  155.2658   -6.5269 N   0  0  0  0  0  0  0  0  0  0  0  0
   55.3099  155.6163   -6.1524 N   0  0  0  0  0  0  0  0  0  0  0  0
   53.8876  157.2758   -2.9948 N   0  0  0  0  0  0  0  0  0  0  0  0
   56.8637  157.2000   -5.2863 O   0  0  0  0  0  0  0  0  0  0  0  0
   52.0522  155.6639   -4.4572 O   0  0  0  0  0  0  0  0  0  0  0  0
   57.2408  153.4411   -7.6367 H   0  0  0  0  0  0  0  0  0  0  0  0
   54.6160  153.8637   -7.1863 H   0  0  0  0  0  0  0  0  0  0  0  0
   61.3356  156.6249   -7.2286 H   0  0  0  0  0  0  0  0  0  0  0  0
   61.4000  154.9451   -7.7867 H   0  0  0  0  0  0  0  0  0  0  0  0
   61.2990  156.2605   -8.9655 H   0  0  0  0  0  0  0  0  0  0  0  0
   59.1003  155.1286   -8.6912 H   0  0  0  0  0  0  0  0  0  0  0  0
   59.0086  156.8133   -8.1727 H   0  0  0  0  0  0  0  0  0  0  0  0
   59.3253  154.3763   -6.3368 H   0  0  0  0  0  0  0  0  0  0  0  0
   59.2353  156.0531   -5.7694 H   0  0  0  0  0  0  0  0  0  0  0  0
   53.3619  156.1019   -6.5844 H   0  0  0  0  0  0  0  0  0  0  0  0
   54.2186  157.2099   -5.4911 H   0  0  0  0  0  0  0  0  0  0  0  0
   55.1700  155.6651   -3.1962 H   0  0  0  0  0  0  0  0  0  0  0  0
   53.6402  155.3179   -2.3611 H   0  0  0  0  0  0  0  0  0  0  0  0
   53.5965  154.3450   -4.6618 H   0  0  0  0  0  0  0  0  0  0  0  0
   53.9461  157.8911   -3.7855 H   0  0  0  0  0  0  0  0  0  0  0  0
   53.8956  157.6347   -2.0576 H   0  0  0  0  0  0  0  0  0  0  0  0
   51.6788  155.3236   -5.2842 H   0  0  0  0  0  0  0  0  0  0  0  0
  1  2  2  0  0  0  0
  1 10  1  0  0  0  0
  2 11  1  0  0  0  0
  3 10  1  0  0  0  0
  3 11  1  0  0  0  0
  3 13  2  0  0  0  0
  4  5  1  0  0  0  0
  5  6  1  0  0  0  0
  6 10  1  0  0  0  0
  7  9  1  0  0  0  0
  7 11  1  0  0  0  0
  8  9  1  0  0  0  0
  8 12  1  0  0  0  0
  9 14  1  0  0  0  0
  1 15  1  0  0  0  0
  2 16  1  0  0  0  0
  4 17  1  0  0  0  0
  4 18  1  0  0  0  0
  4 19  1  0  0  0  0
  5 20  1  0  0  0  0
  5 21  1  0  0  0  0
  6 22  1  0  0  0  0
  6 23  1  0  0  0  0
  7 24  1  0  0  0  0
  7 25  1  0  0  0  0
  8 26  1  0  0  0  0
  8 27  1  0  0  0  0
  9 28  1  0  0  0  0
 12 29  1  0  0  0  0
 12 30  1  0  0  0  0
 14 31  1  0  0  0  0
M  END
> <FRED Chemgauss4 score>
-7.774649

$$$$
C97300902	P154083584
  -OEChem-05122015073D

 42 42  0     1  0  0  0  0  0999 V2000
   53.7664  156.2740   -3.5037 C   0  0  0  0  0  0  0  0  0  0  0  0
   54.0001  157.1320   -5.8171 C   0  0  0  0  0  0  0  0  0  0  0  0
   56.7697  160.2254   -0.8728 C   0  0  0  0  0  0  0  0  0  0  0  0
   55.2619  156.1158   -3.4228 C   0  0  0  0  0  0  0  0  0  0  0  0
   55.5060  156.8325   -5.7592 C   0  0  0  0  0  0  0  0  0  0  0  0
   55.7180  155.4075   -6.3093 C   0  0  0  0  0  0  0  0  0  0  0  0
   56.2150  157.8296   -6.7027 C   0  0  0  0  0  0  0  0  0  0  0  0
   59.1613  159.7968   -1.4697 C   0  0  0  0  0  0  0  0  0  0  0  0
   58.0309  161.6794   -2.6255 C   0  0  0  0  0  0  0  0  0  0  0  0
   57.7774  157.8278   -2.9435 C   0  0  0  0  0  0  0  0  0  0  0  0
   57.3861  159.2946   -3.1742 C   0  0  0  0  0  0  0  0  0  0  0  0
   57.3762  156.9617   -4.1388 C   0  0  0  0  0  0  0  0  0  0  0  0
   57.8004  160.2718   -2.0332 C   0  0  0  0  0  0  0  0  0  0  0  0
   53.2691  156.7620   -4.6979 N   0  0  0  0  0  0  0  0  0  0  0  0
   55.9284  157.0296   -4.3542 N   0  0  2  0  0  0  0  0  0  0  0  0
   57.0583  161.0129    0.2160 N   0  0  0  0  0  0  0  0  0  0  0  0
   53.0394  155.9424   -2.5666 O   0  0  0  0  0  0  0  0  0  0  0  0
   53.4543  157.6108   -6.8125 O   0  0  0  0  0  0  0  0  0  0  0  0
   55.3562  159.3201   -0.8707 S   0  0  0  0  0  0  0  0  0  0  0  0
   55.5814  156.2536   -2.3851 H   0  0  0  0  0  0  0  0  0  0  0  0
   55.4784  155.0795   -3.7085 H   0  0  0  0  0  0  0  0  0  0  0  0
   56.7747  155.1725   -6.2787 H   0  0  0  0  0  0  0  0  0  0  0  0
   55.3593  155.3680   -7.3303 H   0  0  0  0  0  0  0  0  0  0  0  0
   55.1650  154.7078   -5.6949 H   0  0  0  0  0  0  0  0  0  0  0  0
   57.2820  157.6403   -6.6813 H   0  0  0  0  0  0  0  0  0  0  0  0
   56.0136  158.8400   -6.3663 H   0  0  0  0  0  0  0  0  0  0  0  0
   55.8372  157.6945   -7.7096 H   0  0  0  0  0  0  0  0  0  0  0  0
   59.9338  159.8080   -2.2475 H   0  0  0  0  0  0  0  0  0  0  0  0
   59.0937  158.7753   -1.0780 H   0  0  0  0  0  0  0  0  0  0  0  0
   59.5140  160.4354   -0.6526 H   0  0  0  0  0  0  0  0  0  0  0  0
   58.7624  161.6744   -3.4399 H   0  0  0  0  0  0  0  0  0  0  0  0
   57.1013  162.1041   -3.0225 H   0  0  0  0  0  0  0  0  0  0  0  0
   58.3995  162.3723   -1.8599 H   0  0  0  0  0  0  0  0  0  0  0  0
   58.8592  157.7478   -2.7856 H   0  0  0  0  0  0  0  0  0  0  0  0
   57.2864  157.4455   -2.0416 H   0  0  0  0  0  0  0  0  0  0  0  0
   56.2970  159.3462   -3.3106 H   0  0  0  0  0  0  0  0  0  0  0  0
   57.8181  159.6240   -4.1275 H   0  0  0  0  0  0  0  0  0  0  0  0
   57.6607  155.9191   -3.9614 H   0  0  0  0  0  0  0  0  0  0  0  0
   57.8937  157.3005   -5.0431 H   0  0  0  0  0  0  0  0  0  0  0  0
   52.2581  156.8275   -4.7751 H   0  0  0  0  0  0  0  0  0  0  0  0
   57.9005  161.5786    0.2363 H   0  0  0  0  0  0  0  0  0  0  0  0
   56.4635  161.0654    1.0355 H   0  0  0  0  0  0  0  0  0  0  0  0
  1  4  1  0  0  0  0
  1 14  1  0  0  0  0
  1 17  2  0  0  0  0
  2  5  1  0  0  0  0
  2 14  1  0  0  0  0
  2 18  2  0  0  0  0
  3 13  1  0  0  0  0
  3 16  1  0  0  0  0
  3 19  2  0  0  0  0
  4 15  1  0  0  0  0
  5  6  1  0  0  0  0
  5  7  1  0  0  0  0
  5 15  1  0  0  0  0
  8 13  1  0  0  0  0
  9 13  1  0  0  0  0
 10 11  1  0  0  0  0
 10 12  1  0  0  0  0
 11 13  1  0  0  0  0
 12 15  1  0  0  0  0
  4 20  1  0  0  0  0
  4 21  1  0  0  0  0
  6 22  1  0  0  0  0
  6 23  1  0  0  0  0
  6 24  1  0  0  0  0
  7 25  1  0  0  0  0
  7 26  1  0  0  0  0
  7 27  1  0  0  0  0
  8 28  1  0  0  0  0
  8 29  1  0  0  0  0
  8 30  1  0  0  0  0
  9 31  1  0  0  0  0
  9 32  1  0  0  0  0
  9 33  1  0  0  0  0
 10 34  1  0  0  0  0
 10 35  1  0  0  0  0
 11 36  1  0  0  0  0
 11 37  1  0  0  0  0
 12 38  1  0  0  0  0
 12 39  1  0  0  0  0
 14 40  1  0  0  0  0
 16 41  1  0  0  0  0
 16 42  1  0  0  0  0
M  END
> <FRED Chemgauss4 score>
-7.759292

$$$$
C39959114	P97216792
  -OEChem-05122015073D

 42 44  0     1  0  0  0  0  0999 V2000
   59.5780  161.2561   -2.2026 C   0  0  0  0  0  0  0  0  0  0  0  0
   59.8299  161.4114   -6.1897 C   0  0  0  0  0  0  0  0  0  0  0  0
   58.3160  160.9190   -4.2667 C   0  0  0  0  0  0  0  0  0  0  0  0
   60.4645  162.0874   -2.7824 C   0  0  0  0  0  0  0  0  0  0  0  0
   61.1212  162.1004   -6.1144 C   0  0  0  0  0  0  0  0  0  0  0  0
   58.4060  160.7611   -2.9293 C   0  0  0  0  0  0  0  0  0  0  0  0
   59.3696  161.6146   -4.9582 C   0  0  0  0  0  0  0  0  0  0  0  0
   55.1700  157.4117   -2.9640 C   0  0  0  0  0  0  0  0  0  0  0  0
   60.2305  162.5677   -4.1849 C   0  0  2  0  0  0  0  0  0  0  0  0
   57.3825  160.0233   -2.1319 C   0  0  1  0  0  0  0  0  0  0  0  0
   55.7707  158.4646   -2.0957 C   0  0  2  0  0  0  0  0  0  0  0  0
   55.5032  154.9661   -4.6801 C   0  0  0  0  0  0  0  0  0  0  0  0
   56.1448  156.5716   -6.4918 C   0  0  0  0  0  0  0  0  0  0  0  0
   53.8041  156.6034   -5.5234 C   0  0  0  0  0  0  0  0  0  0  0  0
   55.2981  156.3858   -5.2254 C   0  0  0  0  0  0  0  0  0  0  0  0
   61.4546  162.6935   -5.0042 N   0  0  0  0  0  0  0  0  0  0  0  0
   56.2635  159.5412   -2.9422 N   0  0  0  0  0  0  0  0  0  0  0  0
   57.9595  158.8522   -1.4665 N   0  0  0  0  0  0  0  0  0  0  0  0
   55.7291  157.3363   -4.2255 N   0  0  0  0  0  0  0  0  0  0  0  0
   54.2639  156.7122   -2.5266 O   0  0  0  0  0  0  0  0  0  0  0  0
   56.8476  157.9019   -1.3675 O   0  0  0  0  0  0  0  0  0  0  0  0
   53.3193  155.6661   -6.4782 O   0  0  0  0  0  0  0  0  0  0  0  0
   59.7236  160.9316   -1.1774 H   0  0  0  0  0  0  0  0  0  0  0  0
   59.4994  160.7356   -6.9563 H   0  0  0  0  0  0  0  0  0  0  0  0
   57.5072  160.4812   -4.8413 H   0  0  0  0  0  0  0  0  0  0  0  0
   61.3154  162.4596   -2.2216 H   0  0  0  0  0  0  0  0  0  0  0  0
   61.7973  162.0356   -6.9794 H   0  0  0  0  0  0  0  0  0  0  0  0
   59.7537  163.5560   -4.1328 H   0  0  0  0  0  0  0  0  0  0  0  0
   57.0147  160.7038   -1.3623 H   0  0  0  0  0  0  0  0  0  0  0  0
   55.0061  158.8309   -1.3944 H   0  0  0  0  0  0  0  0  0  0  0  0
   54.9117  154.7983   -3.7731 H   0  0  0  0  0  0  0  0  0  0  0  0
   55.2091  154.2119   -5.4192 H   0  0  0  0  0  0  0  0  0  0  0  0
   56.5560  154.7847   -4.4339 H   0  0  0  0  0  0  0  0  0  0  0  0
   56.0262  157.5759   -6.9140 H   0  0  0  0  0  0  0  0  0  0  0  0
   55.8677  155.8455   -7.2641 H   0  0  0  0  0  0  0  0  0  0  0  0
   57.2114  156.4413   -6.2742 H   0  0  0  0  0  0  0  0  0  0  0  0
   53.2048  156.4817   -4.6146 H   0  0  0  0  0  0  0  0  0  0  0  0
   53.6168  157.6101   -5.9143 H   0  0  0  0  0  0  0  0  0  0  0  0
   55.5591  160.2668   -2.9690 H   0  0  0  0  0  0  0  0  0  0  0  0
   58.5828  158.3525   -2.1016 H   0  0  0  0  0  0  0  0  0  0  0  0
   56.4788  157.9796   -4.4613 H   0  0  0  0  0  0  0  0  0  0  0  0
   52.3792  155.8661   -6.6119 H   0  0  0  0  0  0  0  0  0  0  0  0
  1  4  2  0  0  0  0
  1  6  1  0  0  0  0
  2  5  1  0  0  0  0
  2  7  2  0  0  0  0
  3  6  2  0  0  0  0
  3  7  1  0  0  0  0
  4  9  1  0  0  0  0
  5 16  2  0  0  0  0
  6 10  1  0  0  0  0
  7  9  1  0  0  0  0
  8 11  1  0  0  0  0
  8 19  1  0  0  0  0
  8 20  2  0  0  0  0
  9 16  1  0  0  0  0
 10 17  1  0  0  0  0
 10 18  1  0  0  0  0
 11 17  1  0  0  0  0
 11 21  1  0  0  0  0
 12 15  1  0  0  0  0
 13 15  1  0  0  0  0
 14 15  1  0  0  0  0
 14 22  1  0  0  0  0
 15 19  1  0  0  0  0
 18 21  1  0  0  0  0
  1 23  1  0  0  0  0
  2 24  1  0  0  0  0
  3 25  1  0  0  0  0
  4 26  1  0  0  0  0
  5 27  1  0  0  0  0
  9 28  1  0  0  0  0
 10 29  1  0  0  0  0
 11 30  1  0  0  0  0
 12 31  1  0  0  0  0
 12 32  1  0  0  0  0
 12 33  1  0  0  0  0
 13 34  1  0  0  0  0
 13 35  1  0  0  0  0
 13 36  1  0  0  0  0
 14 37  1  0  0  0  0
 14 38  1  0  0  0  0
 17 39  1  0  0  0  0
 18 40  1  0  0  0  0
 19 41  1  0  0  0  0
 22 42  1  0  0  0  0
M  END
> <FRED Chemgauss4 score>
-7.758153

$$$$
C87446092	P136813147
  -OEChem-05122015073D

 26 26  0     0  0  0  0  0  0999 V2000
   55.4230  158.9390   -2.6542 C   0  0  0  0  0  0  0  0  0  0  0  0
   56.2857  160.8605   -2.4064 C   0  0  0  0  0  0  0  0  0  0  0  0
   55.2297  157.5153   -3.0320 C   0  0  0  0  0  0  0  0  0  0  0  0
   57.2239  161.9794   -2.4569 C   0  0  0  0  0  0  0  0  0  0  0  0
   55.2226  155.7441   -6.0989 C   0  0  0  0  0  0  0  0  0  0  0  0
   55.7896  155.7487   -4.6817 C   0  0  0  0  0  0  0  0  0  0  0  0
   53.8335  156.3662   -6.1678 C   0  0  0  0  0  0  0  0  0  0  0  0
   55.0619  160.9248   -1.8463 N   0  5  0  0  0  0  0  0  0  0  0  0
   56.5322  159.6447   -2.9125 N   0  0  0  0  0  0  0  0  0  0  0  0
   54.5038  159.6810   -2.0059 N   0  0  0  0  0  0  0  0  0  0  0  0
   55.8969  157.0954   -4.1728 N   0  0  0  0  0  0  0  0  0  0  0  0
   52.9252  155.6238   -5.2597 N   0  3  0  0  0  0  0  0  0  0  0  0
   54.4947  156.8076   -2.3483 O   0  0  0  0  0  0  0  0  0  0  0  0
   57.8861  162.0026   -1.5691 H   0  0  0  0  0  0  0  0  0  0  0  0
   57.8820  161.9473   -3.3491 H   0  0  0  0  0  0  0  0  0  0  0  0
   56.7149  162.9638   -2.5052 H   0  0  0  0  0  0  0  0  0  0  0  0
   55.1903  154.7170   -6.4842 H   0  0  0  0  0  0  0  0  0  0  0  0
   55.9049  156.3065   -6.7484 H   0  0  0  0  0  0  0  0  0  0  0  0
   55.1294  155.1768   -4.0215 H   0  0  0  0  0  0  0  0  0  0  0  0
   56.7736  155.2685   -4.6604 H   0  0  0  0  0  0  0  0  0  0  0  0
   53.8270  157.4079   -5.8347 H   0  0  0  0  0  0  0  0  0  0  0  0
   53.4035  156.2973   -7.1713 H   0  0  0  0  0  0  0  0  0  0  0  0
   56.4378  157.7564   -4.7221 H   0  0  0  0  0  0  0  0  0  0  0  0
   52.0270  156.1091   -5.1619 H   0  0  0  0  0  0  0  0  0  0  0  0
   53.3374  155.5307   -4.3250 H   0  0  0  0  0  0  0  0  0  0  0  0
   52.7380  154.6812   -5.6180 H   0  0  0  0  0  0  0  0  0  0  0  0
  1  3  1  0  0  0  0
  1  9  1  0  0  0  0
  1 10  2  0  0  0  0
  2  4  1  0  0  0  0
  2  8  1  0  0  0  0
  2  9  2  0  0  0  0
  3 11  1  0  0  0  0
  3 13  2  0  0  0  0
  5  6  1  0  0  0  0
  5  7  1  0  0  0  0
  6 11  1  0  0  0  0
  7 12  1  0  0  0  0
  8 10  1  0  0  0  0
  4 14  1  0  0  0  0
  4 15  1  0  0  0  0
  4 16  1  0  0  0  0
  5 17  1  0  0  0  0
  5 18  1  0  0  0  0
  6 19  1  0  0  0  0
  6 20  1  0  0  0  0
  7 21  1  0  0  0  0
  7 22  1  0  0  0  0
 11 23  1  0  0  0  0
 12 24  1  0  0  0  0
 12 25  1  0  0  0  0
 12 26  1  0  0  0  0
M  CHG  2   8  -1  12   1
M  END
> <FRED Chemgauss4 score>
-7.751803

$$$$
C44137234	P110141035
  -OEChem-05122015073D

 18 18  0     0  0  0  0  0  0999 V2000
   55.3350  154.6434   -5.6055 C   0  0  0  0  0  0  0  0  0  0  0  0
   56.0221  156.9088   -6.0516 C   0  0  0  0  0  0  0  0  0  0  0  0
   56.6562  154.2460   -5.7539 C   0  0  0  0  0  0  0  0  0  0  0  0
   57.3260  156.4541   -6.1887 C   0  0  0  0  0  0  0  0  0  0  0  0
   55.0193  155.9902   -5.7568 C   0  0  0  0  0  0  0  0  0  0  0  0
   53.6516  156.4344   -5.6082 C   0  0  0  0  0  0  0  0  0  0  0  0
   57.6022  155.1516   -6.0378 N   0  3  0  0  0  0  0  0  0  0  0  0
   53.2020  156.8101   -4.3919 N   0  0  0  0  0  0  0  0  0  0  0  0
   52.8420  156.4656   -6.6862 N   0  3  0  0  0  0  0  0  0  0  0  0
   58.8186  154.7567   -6.1696 O   0  5  0  0  0  0  0  0  0  0  0  0
   53.9676  156.7943   -3.1958 O   0  5  0  0  0  0  0  0  0  0  0  0
   54.5687  153.9096   -5.3763 H   0  0  0  0  0  0  0  0  0  0  0  0
   55.7985  157.9640   -6.1744 H   0  0  0  0  0  0  0  0  0  0  0  0
   56.9874  153.2232   -5.6528 H   0  0  0  0  0  0  0  0  0  0  0  0
   58.1622  157.0983   -6.4157 H   0  0  0  0  0  0  0  0  0  0  0  0
   52.2458  157.1244   -4.2690 H   0  0  0  0  0  0  0  0  0  0  0  0
   53.1735  156.1882   -7.6035 H   0  0  0  0  0  0  0  0  0  0  0  0
   51.8816  156.7791   -6.6001 H   0  0  0  0  0  0  0  0  0  0  0  0
  1  3  1  0  0  0  0
  1  5  2  0  0  0  0
  2  4  2  0  0  0  0
  2  5  1  0  0  0  0
  3  7  2  0  0  0  0
  4  7  1  0  0  0  0
  5  6  1  0  0  0  0
  6  8  1  0  0  0  0
  6  9  2  0  0  0  0
  7 10  1  0  0  0  0
  8 11  1  0  0  0  0
  1 12  1  0  0  0  0
  2 13  1  0  0  0  0
  3 14  1  0  0  0  0
  4 15  1  0  0  0  0
  8 16  1  0  0  0  0
  9 17  1  0  0  0  0
  9 18  1  0  0  0  0
M  CHG  4   7   1   9   1  10  -1  11  -1
M  END
> <FRED Chemgauss4 score>
-7.750610

$$$$
C91517717	P143209456
  -OEChem-05122015073D

 41 42  0     1  0  0  0  0  0999 V2000
   55.7971  155.8691   -6.2214 C   0  0  0  0  0  0  0  0  0  0  0  0
   57.5942  154.2667   -6.4198 C   0  0  0  0  0  0  0  0  0  0  0  0
   58.0922  156.5972   -6.0225 C   0  0  0  0  0  0  0  0  0  0  0  0
   56.2301  154.5582   -6.4200 C   0  0  0  0  0  0  0  0  0  0  0  0
   56.7281  156.8886   -6.0227 C   0  0  0  0  0  0  0  0  0  0  0  0
   58.5253  155.2862   -6.2211 C   0  0  0  0  0  0  0  0  0  0  0  0
   55.1587  160.0948   -4.8128 C   0  0  0  0  0  0  0  0  0  0  0  0
   56.1069  158.2570   -3.3818 C   0  0  0  0  0  0  0  0  0  0  0  0
   56.3830  160.9215   -4.4424 C   0  0  0  0  0  0  0  0  0  0  0  0
   55.4373  158.5874   -4.7290 C   0  0  1  0  0  0  0  0  0  0  0  0
   57.2545  159.2122   -2.9785 C   0  0  0  0  0  0  0  0  0  0  0  0
   55.2355  153.4677   -6.6342 C   0  0  0  0  0  0  0  0  0  0  0  0
   57.5306  159.0407   -1.4749 C   0  0  0  0  0  0  0  0  0  0  0  0
   58.5668  158.9303   -3.7251 C   0  0  0  0  0  0  0  0  0  0  0  0
   54.1280  157.8000   -4.8768 C   0  0  0  0  0  0  0  0  0  0  0  0
   56.2999  158.1866   -5.8272 N   0  0  0  0  0  0  0  0  0  0  0  0
   56.8612  160.5811   -3.1450 O   0  0  0  0  0  0  0  0  0  0  0  0
   53.1219  158.4765   -4.1513 O   0  0  0  0  0  0  0  0  0  0  0  0
   59.8350  155.0061   -6.2204 F   0  0  0  0  0  0  0  0  0  0  0  0
   54.7331  156.0944   -6.2234 H   0  0  0  0  0  0  0  0  0  0  0  0
   57.9413  153.2484   -6.5737 H   0  0  0  0  0  0  0  0  0  0  0  0
   58.8266  157.3840   -5.8691 H   0  0  0  0  0  0  0  0  0  0  0  0
   54.3541  160.3451   -4.1086 H   0  0  0  0  0  0  0  0  0  0  0  0
   54.8124  160.3787   -5.8140 H   0  0  0  0  0  0  0  0  0  0  0  0
   55.3270  158.3287   -2.6097 H   0  0  0  0  0  0  0  0  0  0  0  0
   56.4595  157.2172   -3.3654 H   0  0  0  0  0  0  0  0  0  0  0  0
   57.1826  160.8211   -5.1829 H   0  0  0  0  0  0  0  0  0  0  0  0
   56.1095  161.9818   -4.4193 H   0  0  0  0  0  0  0  0  0  0  0  0
   55.0174  153.3542   -7.7031 H   0  0  0  0  0  0  0  0  0  0  0  0
   55.6071  152.5085   -6.2511 H   0  0  0  0  0  0  0  0  0  0  0  0
   54.2952  153.6771   -6.1075 H   0  0  0  0  0  0  0  0  0  0  0  0
   58.3349  159.7068   -1.1802 H   0  0  0  0  0  0  0  0  0  0  0  0
   57.8173  158.0128   -1.2785 H   0  0  0  0  0  0  0  0  0  0  0  0
   56.6326  159.2827   -0.9160 H   0  0  0  0  0  0  0  0  0  0  0  0
   59.3267  159.6329   -3.3964 H   0  0  0  0  0  0  0  0  0  0  0  0
   58.4053  159.0429   -4.7929 H   0  0  0  0  0  0  0  0  0  0  0  0
   58.8923  157.9165   -3.5116 H   0  0  0  0  0  0  0  0  0  0  0  0
   54.2596  156.7989   -4.4746 H   0  0  0  0  0  0  0  0  0  0  0  0
   53.8517  157.7493   -5.9267 H   0  0  0  0  0  0  0  0  0  0  0  0
   56.5947  158.9017   -6.4762 H   0  0  0  0  0  0  0  0  0  0  0  0
   52.2994  157.9663   -4.2544 H   0  0  0  0  0  0  0  0  0  0  0  0
  1  4  1  0  0  0  0
  1  5  2  0  0  0  0
  2  4  2  0  0  0  0
  2  6  1  0  0  0  0
  3  5  1  0  0  0  0
  3  6  2  0  0  0  0
  4 12  1  0  0  0  0
  5 16  1  0  0  0  0
  6 19  1  0  0  0  0
  7  9  1  0  0  0  0
  7 10  1  0  0  0  0
  8 10  1  0  0  0  0
  8 11  1  0  0  0  0
  9 17  1  0  0  0  0
 10 15  1  0  0  0  0
 10 16  1  0  0  0  0
 11 13  1  0  0  0  0
 11 14  1  0  0  0  0
 11 17  1  0  0  0  0
 15 18  1  0  0  0  0
  1 20  1  0  0  0  0
  2 21  1  0  0  0  0
  3 22  1  0  0  0  0
  7 23  1  0  0  0  0
  7 24  1  0  0  0  0
  8 25  1  0  0  0  0
  8 26  1  0  0  0  0
  9 27  1  0  0  0  0
  9 28  1  0  0  0  0
 12 29  1  0  0  0  0
 12 30  1  0  0  0  0
 12 31  1  0  0  0  0
 13 32  1  0  0  0  0
 13 33  1  0  0  0  0
 13 34  1  0  0  0  0
 14 35  1  0  0  0  0
 14 36  1  0  0  0  0
 14 37  1  0  0  0  0
 15 38  1  0  0  0  0
 15 39  1  0  0  0  0
 16 40  1  0  0  0  0
 18 41  1  0  0  0  0
M  END
> <FRED Chemgauss4 score>
-7.743936

$$$$
C49589096	P74062086
  -OEChem-05122015073D

 37 38  0     1  0  0  0  0  0999 V2000
   61.5853  155.9121   -8.0704 C   0  0  0  0  0  0  0  0  0  0  0  0
   62.6644  156.4031   -8.2635 C   0  0  0  0  0  0  0  0  0  0  0  0
   59.1473  156.0001   -8.2390 C   0  0  0  0  0  0  0  0  0  0  0  0
   60.2050  154.0803   -7.2229 C   0  0  0  0  0  0  0  0  0  0  0  0
   57.8948  155.4277   -8.0169 C   0  0  0  0  0  0  0  0  0  0  0  0
   58.9525  153.5078   -7.0008 C   0  0  0  0  0  0  0  0  0  0  0  0
   60.3024  155.3264   -7.8420 C   0  0  0  0  0  0  0  0  0  0  0  0
   57.7974  154.1816   -7.3978 C   0  0  0  0  0  0  0  0  0  0  0  0
   53.5916  156.8104   -3.4635 C   0  0  0  0  0  0  0  0  0  0  0  0
   55.1049  155.0698   -5.7034 C   0  0  0  0  0  0  0  0  0  0  0  0
   54.5539  157.5166   -5.7837 C   0  0  0  0  0  0  0  0  0  0  0  0
   54.0168  156.0994   -5.7242 C   0  0  2  0  0  0  0  0  0  0  0  0
   63.9851  157.0051   -8.4999 C   0  0  0  0  0  0  0  0  0  0  0  0
   56.4493  153.5661   -7.1574 C   0  0  0  0  0  0  0  0  0  0  0  0
   64.7559  156.2519   -9.5752 C   0  0  0  0  0  0  0  0  0  0  0  0
   53.2916  155.9403   -4.4882 N   0  0  0  0  0  0  0  0  0  0  0  0
   55.4272  154.5667   -6.9494 N   0  0  0  0  0  0  0  0  0  0  0  0
   53.1485  156.7990   -2.3252 O   0  0  0  0  0  0  0  0  0  0  0  0
   55.6176  154.7541   -4.6361 O   0  0  0  0  0  0  0  0  0  0  0  0
   64.9113  154.8923   -9.1873 O   0  0  0  0  0  0  0  0  0  0  0  0
   54.7500  158.0038   -4.0406 S   0  0  0  0  0  0  0  0  0  0  0  0
   59.2070  156.9714   -8.7245 H   0  0  0  0  0  0  0  0  0  0  0  0
   61.0959  153.5431   -6.9062 H   0  0  0  0  0  0  0  0  0  0  0  0
   57.0003  155.9594   -8.3303 H   0  0  0  0  0  0  0  0  0  0  0  0
   58.8861  152.5373   -6.5161 H   0  0  0  0  0  0  0  0  0  0  0  0
   55.4991  157.6046   -6.3266 H   0  0  0  0  0  0  0  0  0  0  0  0
   53.8177  158.1885   -6.2363 H   0  0  0  0  0  0  0  0  0  0  0  0
   53.3502  155.8768   -6.5628 H   0  0  0  0  0  0  0  0  0  0  0  0
   63.8553  158.0522   -8.7967 H   0  0  0  0  0  0  0  0  0  0  0  0
   64.5582  156.9902   -7.5661 H   0  0  0  0  0  0  0  0  0  0  0  0
   56.1486  152.9492   -8.0113 H   0  0  0  0  0  0  0  0  0  0  0  0
   56.4656  152.9160   -6.2763 H   0  0  0  0  0  0  0  0  0  0  0  0
   64.1969  156.2709  -10.5161 H   0  0  0  0  0  0  0  0  0  0  0  0
   65.7471  156.6865   -9.7436 H   0  0  0  0  0  0  0  0  0  0  0  0
   52.5884  155.2162   -4.3776 H   0  0  0  0  0  0  0  0  0  0  0  0
   54.9218  154.9167   -7.7577 H   0  0  0  0  0  0  0  0  0  0  0  0
   65.4053  154.4539   -9.8985 H   0  0  0  0  0  0  0  0  0  0  0  0
  1  2  3  0  0  0  0
  1  7  1  0  0  0  0
  2 13  1  0  0  0  0
  3  5  1  0  0  0  0
  3  7  2  0  0  0  0
  4  6  2  0  0  0  0
  4  7  1  0  0  0  0
  5  8  2  0  0  0  0
  6  8  1  0  0  0  0
  8 14  1  0  0  0  0
  9 16  1  0  0  0  0
  9 18  2  0  0  0  0
  9 21  1  0  0  0  0
 10 12  1  0  0  0  0
 10 17  1  0  0  0  0
 10 19  2  0  0  0  0
 11 12  1  0  0  0  0
 11 21  1  0  0  0  0
 12 16  1  0  0  0  0
 13 15  1  0  0  0  0
 14 17  1  0  0  0  0
 15 20  1  0  0  0  0
  3 22  1  0  0  0  0
  4 23  1  0  0  0  0
  5 24  1  0  0  0  0
  6 25  1  0  0  0  0
 11 26  1  0  0  0  0
 11 27  1  0  0  0  0
 12 28  1  0  0  0  0
 13 29  1  0  0  0  0
 13 30  1  0  0  0  0
 14 31  1  0  0  0  0
 14 32  1  0  0  0  0
 15 33  1  0  0  0  0
 15 34  1  0  0  0  0
 16 35  1  0  0  0  0
 17 36  1  0  0  0  0
 20 37  1  0  0  0  0
M  END
> <FRED Chemgauss4 score>
-7.736020

$$$$
C80532104	P125763200
  -OEChem-05122015073D

 33 34  0     1  0  0  0  0  0999 V2000
   56.9710  158.0255   -4.3005 C   0  0  0  0  0  0  0  0  0  0  0  0
   55.5750  156.7527   -5.7889 C   0  0  0  0  0  0  0  0  0  0  0  0
   55.9164  158.0300   -3.4020 C   0  0  0  0  0  0  0  0  0  0  0  0
   62.2121  157.2699   -8.4234 C   0  0  0  0  0  0  0  0  0  0  0  0
   62.8489  156.1662   -7.9068 C   0  0  0  0  0  0  0  0  0  0  0  0
   56.7890  157.3725   -5.5145 C   0  0  0  0  0  0  0  0  0  0  0  0
   54.5829  156.8140   -4.8236 C   0  0  0  0  0  0  0  0  0  0  0  0
   60.6671  155.8693   -7.9973 C   0  0  0  0  0  0  0  0  0  0  0  0
   59.0745  155.1215   -5.3881 C   0  0  0  0  0  0  0  0  0  0  0  0
   59.3547  155.1587   -7.8337 C   0  0  0  0  0  0  0  0  0  0  0  0
   54.7227  157.4390   -3.6330 N   0  0  0  0  0  0  0  0  0  0  0  0
   60.8541  157.0789   -8.4769 N   0  0  0  0  0  0  0  0  0  0  0  0
   61.8462  155.2776   -7.6382 N   0  0  0  0  0  0  0  0  0  0  0  0
   53.2301  155.2985   -6.1636 N   0  0  0  0  0  0  0  0  0  0  0  0
   53.3513  156.1776   -5.1176 N   0  0  0  0  0  0  0  0  0  0  0  0
   58.5832  155.6761   -6.6751 N   0  0  2  0  0  0  0  0  0  0  0  0
   57.5150  157.6392   -7.9985 O   0  0  0  0  0  0  0  0  0  0  0  0
   59.1740  158.1593   -6.1926 O   0  0  0  0  0  0  0  0  0  0  0  0
   58.0986  157.3309   -6.7060 S   0  0  0  0  0  0  0  0  0  0  0  0
   57.9052  158.5189   -4.0552 H   0  0  0  0  0  0  0  0  0  0  0  0
   55.4138  156.2378   -6.7312 H   0  0  0  0  0  0  0  0  0  0  0  0
   56.0076  158.5257   -2.4411 H   0  0  0  0  0  0  0  0  0  0  0  0
   62.6623  158.1929   -8.7582 H   0  0  0  0  0  0  0  0  0  0  0  0
   63.8868  155.9384   -7.7126 H   0  0  0  0  0  0  0  0  0  0  0  0
   58.4868  155.5215   -4.5578 H   0  0  0  0  0  0  0  0  0  0  0  0
   60.1239  155.3889   -5.2374 H   0  0  0  0  0  0  0  0  0  0  0  0
   58.9871  154.0317   -5.3883 H   0  0  0  0  0  0  0  0  0  0  0  0
   58.7369  155.2776   -8.7305 H   0  0  0  0  0  0  0  0  0  0  0  0
   59.5055  154.0846   -7.6827 H   0  0  0  0  0  0  0  0  0  0  0  0
   61.9577  154.3511   -7.2480 H   0  0  0  0  0  0  0  0  0  0  0  0
   52.3613  155.5080   -6.6531 H   0  0  0  0  0  0  0  0  0  0  0  0
   53.1199  154.3584   -5.7855 H   0  0  0  0  0  0  0  0  0  0  0  0
   52.6255  156.2179   -4.4208 H   0  0  0  0  0  0  0  0  0  0  0  0
  1  3  2  0  0  0  0
  1  6  1  0  0  0  0
  2  6  2  0  0  0  0
  2  7  1  0  0  0  0
  3 11  1  0  0  0  0
  4  5  2  0  0  0  0
  4 12  1  0  0  0  0
  5 13  1  0  0  0  0
  6 19  1  0  0  0  0
  7 11  2  0  0  0  0
  7 15  1  0  0  0  0
  8 10  1  0  0  0  0
  8 12  2  0  0  0  0
  8 13  1  0  0  0  0
  9 16  1  0  0  0  0
 10 16  1  0  0  0  0
 14 15  1  0  0  0  0
 16 19  1  0  0  0  0
 17 19  2  0  0  0  0
 18 19  2  0  0  0  0
  1 20  1  0  0  0  0
  2 21  1  0  0  0  0
  3 22  1  0  0  0  0
  4 23  1  0  0  0  0
  5 24  1  0  0  0  0
  9 25  1  0  0  0  0
  9 26  1  0  0  0  0
  9 27  1  0  0  0  0
 10 28  1  0  0  0  0
 10 29  1  0  0  0  0
 13 30  1  0  0  0  0
 14 31  1  0  0  0  0
 14 32  1  0  0  0  0
 15 33  1  0  0  0  0
M  END
> <FRED Chemgauss4 score>
-7.719927

$$$$
C82574931	P129060506
  -OEChem-05122015073D

 39 39  0     1  0  0  0  0  0999 V2000
   59.2267  160.2857   -3.6560 C   0  0  0  0  0  0  0  0  0  0  0  0
   56.9366  160.1182   -4.7049 C   0  0  0  0  0  0  0  0  0  0  0  0
   57.1534  160.0404   -2.2390 C   0  0  0  0  0  0  0  0  0  0  0  0
   58.4310  159.8294   -4.8886 C   0  0  2  0  0  0  0  0  0  0  0  0
   58.6500  159.7290   -2.3456 C   0  0  2  0  0  0  0  0  0  0  0  0
   58.6801  158.3537   -5.2149 C   0  0  0  0  0  0  0  0  0  0  0  0
   59.4036  160.2956   -1.1434 C   0  0  0  0  0  0  0  0  0  0  0  0
   54.0716  154.7207   -5.1464 C   0  0  0  0  0  0  0  0  0  0  0  0
   54.4059  157.0614   -4.2430 C   0  0  0  0  0  0  0  0  0  0  0  0
   54.0710  156.2086   -5.4724 C   0  0  2  0  0  0  0  0  0  0  0  0
   54.3930  158.4839   -4.5547 N   0  5  0  0  0  0  0  0  0  0  0  0
   56.4430  159.5036   -3.4369 N   0  0  0  0  0  0  0  0  0  0  0  0
   52.7097  156.5665   -5.9679 N   0  3  0  0  0  0  0  0  0  0  0  0
   54.2622  160.7787   -3.3805 O   0  0  0  0  0  0  0  0  0  0  0  0
   54.5103  158.7556   -1.9919 O   0  0  0  0  0  0  0  0  0  0  0  0
   54.7388  159.3954   -3.2909 S   0  0  0  0  0  0  0  0  0  0  0  0
   60.2790  159.9928   -3.7579 H   0  0  0  0  0  0  0  0  0  0  0  0
   59.2122  161.3834   -3.6193 H   0  0  0  0  0  0  0  0  0  0  0  0
   56.7612  161.2003   -4.6720 H   0  0  0  0  0  0  0  0  0  0  0  0
   56.3747  159.7109   -5.5531 H   0  0  0  0  0  0  0  0  0  0  0  0
   56.7489  159.5639   -1.3384 H   0  0  0  0  0  0  0  0  0  0  0  0
   56.9781  161.1203   -2.1630 H   0  0  0  0  0  0  0  0  0  0  0  0
   58.7842  160.4101   -5.7507 H   0  0  0  0  0  0  0  0  0  0  0  0
   58.7826  158.6395   -2.3392 H   0  0  0  0  0  0  0  0  0  0  0  0
   58.3446  157.7353   -4.3859 H   0  0  0  0  0  0  0  0  0  0  0  0
   59.7425  158.1908   -5.3788 H   0  0  0  0  0  0  0  0  0  0  0  0
   58.1310  158.0811   -6.1129 H   0  0  0  0  0  0  0  0  0  0  0  0
   59.2944  161.3783   -1.1168 H   0  0  0  0  0  0  0  0  0  0  0  0
   60.4603  160.0451   -1.2195 H   0  0  0  0  0  0  0  0  0  0  0  0
   59.0017  159.8733   -0.2241 H   0  0  0  0  0  0  0  0  0  0  0  0
   53.3858  154.5071   -4.3197 H   0  0  0  0  0  0  0  0  0  0  0  0
   55.0701  154.3854   -4.8454 H   0  0  0  0  0  0  0  0  0  0  0  0
   53.7590  154.1203   -6.0079 H   0  0  0  0  0  0  0  0  0  0  0  0
   55.4036  156.7793   -3.8831 H   0  0  0  0  0  0  0  0  0  0  0  0
   53.7132  156.8322   -3.4232 H   0  0  0  0  0  0  0  0  0  0  0  0
   54.7600  156.4116   -6.3003 H   0  0  0  0  0  0  0  0  0  0  0  0
   52.1185  155.7341   -6.0238 H   0  0  0  0  0  0  0  0  0  0  0  0
   52.7667  156.9855   -6.8990 H   0  0  0  0  0  0  0  0  0  0  0  0
   52.2643  157.2377   -5.3380 H   0  0  0  0  0  0  0  0  0  0  0  0
  1  4  1  0  0  0  0
  1  5  1  0  0  0  0
  2  4  1  0  0  0  0
  2 12  1  0  0  0  0
  3  5  1  0  0  0  0
  3 12  1  0  0  0  0
  4  6  1  0  0  0  0
  5  7  1  0  0  0  0
  8 10  1  0  0  0  0
  9 10  1  0  0  0  0
  9 11  1  0  0  0  0
 10 13  1  0  0  0  0
 11 16  1  0  0  0  0
 12 16  1  0  0  0  0
 14 16  2  0  0  0  0
 15 16  2  0  0  0  0
  1 17  1  0  0  0  0
  1 18  1  0  0  0  0
  2 19  1  0  0  0  0
  2 20  1  0  0  0  0
  3 21  1  0  0  0  0
  3 22  1  0  0  0  0
  4 23  1  0  0  0  0
  5 24  1  0  0  0  0
  6 25  1  0  0  0  0
  6 26  1  0  0  0  0
  6 27  1  0  0  0  0
  7 28  1  0  0  0  0
  7 29  1  0  0  0  0
  7 30  1  0  0  0  0
  8 31  1  0  0  0  0
  8 32  1  0  0  0  0
  8 33  1  0  0  0  0
  9 34  1  0  0  0  0
  9 35  1  0  0  0  0
 10 36  1  0  0  0  0
 13 37  1  0  0  0  0
 13 38  1  0  0  0  0
 13 39  1  0  0  0  0
M  CHG  2  11  -1  13   1
M  END
> <FRED Chemgauss4 score>
-7.712383

$$$$
C27865868	P41105896
  -OEChem-05122015073D

 19 19  0     1  0  0  0  0  0999 V2000
   53.9351  157.0733   -3.3703 C   0  0  0  0  0  0  0  0  0  0  0  0
   53.1673  155.3224   -4.7963 C   0  0  0  0  0  0  0  0  0  0  0  0
   54.0549  157.5742   -4.7978 C   0  0  1  0  0  0  0  0  0  0  0  0
   53.9603  156.3025   -5.6680 C   0  0  1  0  0  0  0  0  0  0  0  0
   55.3552  155.7548   -5.9818 C   0  0  0  0  0  0  0  0  0  0  0  0
   53.5056  155.7603   -3.4767 N   0  0  0  0  0  0  0  0  0  0  0  0
   52.9103  158.4741   -5.0961 N   0  3  0  0  0  0  0  0  0  0  0  0
   52.9858  155.1013   -2.3964 O   0  5  0  0  0  0  0  0  0  0  0  0
   54.1321  157.7492   -2.3720 O   0  0  0  0  0  0  0  0  0  0  0  0
   52.0898  155.4541   -4.9538 H   0  0  0  0  0  0  0  0  0  0  0  0
   53.4435  154.2750   -4.9563 H   0  0  0  0  0  0  0  0  0  0  0  0
   54.9742  158.1462   -4.9498 H   0  0  0  0  0  0  0  0  0  0  0  0
   53.4463  156.4805   -6.6199 H   0  0  0  0  0  0  0  0  0  0  0  0
   55.8913  155.5677   -5.0543 H   0  0  0  0  0  0  0  0  0  0  0  0
   55.9069  156.4793   -6.5762 H   0  0  0  0  0  0  0  0  0  0  0  0
   55.2657  154.8254   -6.5394 H   0  0  0  0  0  0  0  0  0  0  0  0
   52.4376  158.1885   -5.9591 H   0  0  0  0  0  0  0  0  0  0  0  0
   53.2289  159.4412   -5.2128 H   0  0  0  0  0  0  0  0  0  0  0  0
   52.2238  158.4547   -4.3356 H   0  0  0  0  0  0  0  0  0  0  0  0
  1  3  1  0  0  0  0
  1  6  1  0  0  0  0
  1  9  2  0  0  0  0
  2  4  1  0  0  0  0
  2  6  1  0  0  0  0
  3  4  1  0  0  0  0
  3  7  1  0  0  0  0
  4  5  1  0  0  0  0
  6  8  1  0  0  0  0
  2 10  1  0  0  0  0
  2 11  1  0  0  0  0
  3 12  1  0  0  0  0
  4 13  1  0  0  0  0
  5 14  1  0  0  0  0
  5 15  1  0  0  0  0
  5 16  1  0  0  0  0
  7 17  1  0  0  0  0
  7 18  1  0  0  0  0
  7 19  1  0  0  0  0
M  CHG  2   7   1   8  -1
M  END
> <FRED Chemgauss4 score>
-7.712084

$$$$
C94263729	P147740637
  -OEChem-05122015073D

 31 33  0     1  0  0  0  0  0999 V2000
   56.1970  161.3146   -5.0336 C   0  0  0  0  0  0  0  0  0  0  0  0
   55.6773  162.5845   -4.7971 C   0  0  0  0  0  0  0  0  0  0  0  0
   53.4297  155.5106   -4.9759 C   0  0  0  0  0  0  0  0  0  0  0  0
   53.7085  156.9139   -6.6521 C   0  0  0  0  0  0  0  0  0  0  0  0
   55.7717  160.3204   -4.1593 C   0  0  0  0  0  0  0  0  0  0  0  0
   54.6125  156.2023   -4.8614 C   0  0  0  0  0  0  0  0  0  0  0  0
   54.8860  160.5832   -3.1204 C   0  0  0  0  0  0  0  0  0  0  0  0
   54.7956  162.7708   -3.7375 C   0  0  0  0  0  0  0  0  0  0  0  0
   55.3256  158.5054   -2.9827 C   0  0  0  0  0  0  0  0  0  0  0  0
   55.6571  156.0959   -3.7737 C   0  0  0  0  0  0  0  0  0  0  0  0
   55.3936  157.0848   -2.5923 C   0  0  2  0  0  0  0  0  0  0  0  0
   54.7800  157.0744   -5.9077 N   0  0  0  0  0  0  0  0  0  0  0  0
   54.3715  161.8145   -2.8779 N   0  0  0  0  0  0  0  0  0  0  0  0
   54.6178  159.4475   -2.3984 N   0  0  0  0  0  0  0  0  0  0  0  0
   52.8615  155.9775   -6.1276 N   0  0  0  0  0  0  0  0  0  0  0  0
   56.0380  158.9828   -4.0499 N   0  0  0  0  0  0  0  0  0  0  0  0
   54.3042  164.0915   -3.5542 N   0  0  0  0  0  0  0  0  0  0  0  0
   54.1710  156.6346   -1.8787 N   0  0  0  0  0  0  0  0  0  0  0  0
   56.8866  161.1174   -5.8451 H   0  0  0  0  0  0  0  0  0  0  0  0
   55.9668  163.4097   -5.4417 H   0  0  0  0  0  0  0  0  0  0  0  0
   52.9541  154.7556   -4.3666 H   0  0  0  0  0  0  0  0  0  0  0  0
   53.4874  157.4376   -7.5715 H   0  0  0  0  0  0  0  0  0  0  0  0
   56.6373  156.2786   -4.2361 H   0  0  0  0  0  0  0  0  0  0  0  0
   55.6992  155.0633   -3.4027 H   0  0  0  0  0  0  0  0  0  0  0  0
   56.2137  156.9216   -1.8589 H   0  0  0  0  0  0  0  0  0  0  0  0
   51.9772  155.6838   -6.5206 H   0  0  0  0  0  0  0  0  0  0  0  0
   56.6505  158.4452   -4.6491 H   0  0  0  0  0  0  0  0  0  0  0  0
   54.6432  164.8136   -4.1485 H   0  0  0  0  0  0  0  0  0  0  0  0
   53.7085  164.2755   -2.7790 H   0  0  0  0  0  0  0  0  0  0  0  0
   53.7457  157.2849   -1.2729 H   0  0  0  0  0  0  0  0  0  0  0  0
   53.9791  155.6681   -1.8934 H   0  0  0  0  0  0  0  0  0  0  0  0
  1  2  1  0  0  0  0
  1  5  2  0  0  0  0
  2  8  2  0  0  0  0
  3  6  2  0  0  0  0
  3 15  1  0  0  0  0
  4 12  2  0  0  0  0
  4 15  1  0  0  0  0
  5  7  1  0  0  0  0
  5 16  1  0  0  0  0
  6 10  1  0  0  0  0
  6 12  1  0  0  0  0
  7 13  2  0  0  0  0
  7 14  1  0  0  0  0
  8 13  1  0  0  0  0
  8 17  1  0  0  0  0
  9 11  1  0  0  0  0
  9 14  2  0  0  0  0
  9 16  1  0  0  0  0
 10 11  1  0  0  0  0
 11 18  1  0  0  0  0
  1 19  1  0  0  0  0
  2 20  1  0  0  0  0
  3 21  1  0  0  0  0
  4 22  1  0  0  0  0
 10 23  1  0  0  0  0
 10 24  1  0  0  0  0
 11 25  1  0  0  0  0
 15 26  1  0  0  0  0
 16 27  1  0  0  0  0
 17 28  1  0  0  0  0
 17 29  1  0  0  0  0
 18 30  1  0  0  0  0
 18 31  1  0  0  0  0
M  END
> <FRED Chemgauss4 score>
-7.706292

$$$$
C48881700	P73030881
  -OEChem-05122015073D

 37 38  0     1  0  0  0  0  0999 V2000
   60.6189  158.8939   -6.8370 C   0  0  0  0  0  0  0  0  0  0  0  0
   59.2101  159.4842   -4.9652 C   0  0  0  0  0  0  0  0  0  0  0  0
   61.0773  160.2094   -6.9069 C   0  0  0  0  0  0  0  0  0  0  0  0
   59.6685  160.7997   -5.0350 C   0  0  0  0  0  0  0  0  0  0  0  0
   55.8140  155.9433   -6.8336 C   0  0  0  0  0  0  0  0  0  0  0  0
   54.3599  155.7750   -4.9116 C   0  0  0  0  0  0  0  0  0  0  0  0
   56.5634  156.7380   -4.6786 C   0  0  0  0  0  0  0  0  0  0  0  0
   59.6853  158.5313   -5.8661 C   0  0  0  0  0  0  0  0  0  0  0  0
   54.5949  155.5662   -6.2706 C   0  0  0  0  0  0  0  0  0  0  0  0
   56.7983  156.5291   -6.0376 C   0  0  0  0  0  0  0  0  0  0  0  0
   55.3442  156.3610   -4.1156 C   0  0  0  0  0  0  0  0  0  0  0  0
   60.6021  161.1624   -6.0059 C   0  0  0  0  0  0  0  0  0  0  0  0
   58.1286  157.1058   -8.0521 C   0  0  0  0  0  0  0  0  0  0  0  0
   59.1952  157.1247   -5.7915 C   0  0  0  0  0  0  0  0  0  0  0  0
   53.5996  154.9738   -7.0754 N   0  0  0  0  0  0  0  0  0  0  0  0
   54.3681  158.1889   -2.4391 N   0  0  0  0  0  0  0  0  0  0  0  0
   58.0250  156.9085   -6.6040 N   0  0  3  0  0  0  0  0  0  0  0  0
   54.0359  155.6754   -1.9728 O   0  0  0  0  0  0  0  0  0  0  0  0
   56.3325  156.6819   -1.7272 O   0  0  0  0  0  0  0  0  0  0  0  0
   55.0500  156.6224   -2.4145 S   0  0  0  0  0  0  0  0  0  0  0  0
   61.2232  162.9446   -6.1016 Br  0  0  0  0  0  0  0  0  0  0  0  0
   60.9948  158.1581   -7.5430 H   0  0  0  0  0  0  0  0  0  0  0  0
   58.4819  159.2110   -4.2060 H   0  0  0  0  0  0  0  0  0  0  0  0
   61.8042  160.4756   -7.6701 H   0  0  0  0  0  0  0  0  0  0  0  0
   59.2885  161.5300   -4.3255 H   0  0  0  0  0  0  0  0  0  0  0  0
   55.9973  155.7804   -7.8936 H   0  0  0  0  0  0  0  0  0  0  0  0
   53.4092  155.4811   -4.4726 H   0  0  0  0  0  0  0  0  0  0  0  0
   57.3309  157.1948   -4.0580 H   0  0  0  0  0  0  0  0  0  0  0  0
   59.1477  157.3969   -8.3197 H   0  0  0  0  0  0  0  0  0  0  0  0
   57.4413  157.8918   -8.3765 H   0  0  0  0  0  0  0  0  0  0  0  0
   57.8770  156.1811   -8.5785 H   0  0  0  0  0  0  0  0  0  0  0  0
   59.9664  156.4181   -6.1290 H   0  0  0  0  0  0  0  0  0  0  0  0
   58.9355  156.8425   -4.7619 H   0  0  0  0  0  0  0  0  0  0  0  0
   53.7620  154.8728   -8.0569 H   0  0  0  0  0  0  0  0  0  0  0  0
   52.7130  154.7514   -6.6699 H   0  0  0  0  0  0  0  0  0  0  0  0
   54.9879  158.9810   -2.6483 H   0  0  0  0  0  0  0  0  0  0  0  0
   53.4177  158.2950   -2.8144 H   0  0  0  0  0  0  0  0  0  0  0  0
  1  3  2  0  0  0  0
  1  8  1  0  0  0  0
  2  4  1  0  0  0  0
  2  8  2  0  0  0  0
  3 12  1  0  0  0  0
  4 12  2  0  0  0  0
  5  9  2  0  0  0  0
  5 10  1  0  0  0  0
  6  9  1  0  0  0  0
  6 11  2  0  0  0  0
  7 10  2  0  0  0  0
  7 11  1  0  0  0  0
  8 14  1  0  0  0  0
  9 15  1  0  0  0  0
 10 17  1  0  0  0  0
 11 20  1  0  0  0  0
 12 21  1  0  0  0  0
 13 17  1  0  0  0  0
 14 17  1  0  0  0  0
 16 20  1  0  0  0  0
 18 20  2  0  0  0  0
 19 20  2  0  0  0  0
  1 22  1  0  0  0  0
  2 23  1  0  0  0  0
  3 24  1  0  0  0  0
  4 25  1  0  0  0  0
  5 26  1  0  0  0  0
  6 27  1  0  0  0  0
  7 28  1  0  0  0  0
 13 29  1  0  0  0  0
 13 30  1  0  0  0  0
 13 31  1  0  0  0  0
 14 32  1  0  0  0  0
 14 33  1  0  0  0  0
 15 34  1  0  0  0  0
 15 35  1  0  0  0  0
 16 36  1  0  0  0  0
 16 37  1  0  0  0  0
M  END
> <FRED Chemgauss4 score>
-7.698915

$$$$
C37438702	P55668415
  -OEChem-05122015073D

 37 39  0     1  0  0  0  0  0999 V2000
   59.4902  154.4704   -7.8229 C   0  0  0  0  0  0  0  0  0  0  0  0
   58.2045  154.1636   -7.3652 C   0  0  0  0  0  0  0  0  0  0  0  0
   59.1859  156.8325   -7.3171 C   0  0  0  0  0  0  0  0  0  0  0  0
   59.9743  155.7805   -7.8001 C   0  0  0  0  0  0  0  0  0  0  0  0
   57.8916  156.5424   -6.8535 C   0  0  0  0  0  0  0  0  0  0  0  0
   57.4373  155.2271   -6.8887 C   0  0  0  0  0  0  0  0  0  0  0  0
   55.9093  156.5967   -6.0618 C   0  0  0  0  0  0  0  0  0  0  0  0
   55.3657  152.8907   -7.0516 C   0  0  0  0  0  0  0  0  0  0  0  0
   54.1978  153.8040   -7.2556 C   0  0  0  0  0  0  0  0  0  0  0  0
   55.2232  154.1263   -6.1940 C   0  0  0  0  0  0  0  0  0  0  0  0
   61.3527  156.0657   -8.2978 C   0  0  0  0  0  0  0  0  0  0  0  0
   55.5084  156.3215   -3.1272 C   0  0  0  0  0  0  0  0  0  0  0  0
   54.6202  157.0278   -5.4824 C   0  0  2  0  0  0  0  0  0  0  0  0
   54.3260  156.3705   -4.0927 C   0  0  2  0  0  0  0  0  0  0  0  0
   56.9290  157.3788   -6.3367 N   0  0  0  0  0  0  0  0  0  0  0  0
   56.1668  155.2914   -6.3765 N   0  0  0  0  0  0  0  0  0  0  0  0
   53.4885  156.7852   -6.4100 N   0  0  0  0  0  0  0  0  0  0  0  0
   53.2891  157.1234   -3.4541 O   0  0  0  0  0  0  0  0  0  0  0  0
   60.1172  153.6660   -8.2017 H   0  0  0  0  0  0  0  0  0  0  0  0
   57.8301  153.1463   -7.3833 H   0  0  0  0  0  0  0  0  0  0  0  0
   59.5627  157.8507   -7.2996 H   0  0  0  0  0  0  0  0  0  0  0  0
   55.1809  151.9303   -6.5863 H   0  0  0  0  0  0  0  0  0  0  0  0
   56.1341  152.8785   -7.8152 H   0  0  0  0  0  0  0  0  0  0  0  0
   54.1803  154.4053   -8.1564 H   0  0  0  0  0  0  0  0  0  0  0  0
   53.2247  153.4607   -6.9265 H   0  0  0  0  0  0  0  0  0  0  0  0
   54.9492  154.0045   -5.1683 H   0  0  0  0  0  0  0  0  0  0  0  0
   61.3305  156.2927   -9.3701 H   0  0  0  0  0  0  0  0  0  0  0  0
   61.7968  156.9185   -7.7694 H   0  0  0  0  0  0  0  0  0  0  0  0
   62.0183  155.2085   -8.1359 H   0  0  0  0  0  0  0  0  0  0  0  0
   55.9351  157.3133   -2.9532 H   0  0  0  0  0  0  0  0  0  0  0  0
   56.2958  155.6602   -3.5052 H   0  0  0  0  0  0  0  0  0  0  0  0
   55.1931  155.9128   -2.1605 H   0  0  0  0  0  0  0  0  0  0  0  0
   54.6270  158.1266   -5.3057 H   0  0  0  0  0  0  0  0  0  0  0  0
   53.9437  155.3520   -4.2262 H   0  0  0  0  0  0  0  0  0  0  0  0
   53.6631  156.9192   -7.3715 H   0  0  0  0  0  0  0  0  0  0  0  0
   52.5912  156.7065   -6.0079 H   0  0  0  0  0  0  0  0  0  0  0  0
   53.0741  156.6484   -2.6386 H   0  0  0  0  0  0  0  0  0  0  0  0
  1  2  2  0  0  0  0
  1  4  1  0  0  0  0
  2  6  1  0  0  0  0
  3  4  2  0  0  0  0
  3  5  1  0  0  0  0
  4 11  1  0  0  0  0
  5  6  2  0  0  0  0
  5 15  1  0  0  0  0
  6 16  1  0  0  0  0
  7 13  1  0  0  0  0
  7 15  2  0  0  0  0
  7 16  1  0  0  0  0
  8  9  1  0  0  0  0
  8 10  1  0  0  0  0
  9 10  1  0  0  0  0
 10 16  1  0  0  0  0
 12 14  1  0  0  0  0
 13 14  1  0  0  0  0
 13 17  1  0  0  0  0
 14 18  1  0  0  0  0
  1 19  1  0  0  0  0
  2 20  1  0  0  0  0
  3 21  1  0  0  0  0
  8 22  1  0  0  0  0
  8 23  1  0  0  0  0
  9 24  1  0  0  0  0
  9 25  1  0  0  0  0
 10 26  1  0  0  0  0
 11 27  1  0  0  0  0
 11 28  1  0  0  0  0
 11 29  1  0  0  0  0
 12 30  1  0  0  0  0
 12 31  1  0  0  0  0
 12 32  1  0  0  0  0
 13 33  1  0  0  0  0
 14 34  1  0  0  0  0
 17 35  1  0  0  0  0
 17 36  1  0  0  0  0
 18 37  1  0  0  0  0
M  END
> <FRED Chemgauss4 score>
-7.694703

$$$$
C93361256	P146174107
  -OEChem-05122015073D

 38 39  0     1  0  0  0  0  0999 V2000
   56.1754  156.5884   -4.4633 C   0  0  0  0  0  0  0  0  0  0  0  0
   54.8211  155.2330   -5.7790 C   0  0  0  0  0  0  0  0  0  0  0  0
   54.8925  155.9917   -4.6315 C   0  0  0  0  0  0  0  0  0  0  0  0
   57.0358  156.2628   -5.4888 C   0  0  0  0  0  0  0  0  0  0  0  0
   53.7788  156.1402   -3.7317 C   0  0  0  0  0  0  0  0  0  0  0  0
   59.1686  160.9913   -5.3555 C   0  0  0  0  0  0  0  0  0  0  0  0
   58.3495  159.6133   -8.0555 C   0  0  0  0  0  0  0  0  0  0  0  0
   59.6722  160.2872   -7.6985 C   0  0  0  0  0  0  0  0  0  0  0  0
   58.3136  158.1615   -7.5794 C   0  0  0  0  0  0  0  0  0  0  0  0
   59.8828  158.6324   -5.7913 C   0  0  0  0  0  0  0  0  0  0  0  0
   60.0162  160.0994   -6.2204 C   0  0  2  0  0  0  0  0  0  0  0  0
   59.0437  163.2698   -4.3677 C   0  0  0  0  0  0  0  0  0  0  0  0
   58.4631  156.6871   -5.6813 C   0  0  0  0  0  0  0  0  0  0  0  0
   58.5654  158.0741   -6.1352 N   0  0  2  0  0  0  0  0  0  0  0  0
   52.5830  155.4849   -4.0438 N   0  0  0  0  0  0  0  0  0  0  0  0
   59.6955  162.2542   -5.1631 N   0  0  0  0  0  0  0  0  0  0  0  0
   53.8491  156.8451   -2.7001 O   0  0  0  0  0  0  0  0  0  0  0  0
   58.1145  160.5652   -4.8983 O   0  0  0  0  0  0  0  0  0  0  0  0
   56.2966  155.2419   -6.6480 S   0  0  0  0  0  0  0  0  0  0  0  0
   56.4541  157.2245   -3.6321 H   0  0  0  0  0  0  0  0  0  0  0  0
   53.9769  154.6706   -6.1542 H   0  0  0  0  0  0  0  0  0  0  0  0
   57.5194  160.1718   -7.6069 H   0  0  0  0  0  0  0  0  0  0  0  0
   58.2045  159.6482   -9.1435 H   0  0  0  0  0  0  0  0  0  0  0  0
   60.4784  159.8842   -8.3312 H   0  0  0  0  0  0  0  0  0  0  0  0
   59.6107  161.3615   -7.9391 H   0  0  0  0  0  0  0  0  0  0  0  0
   57.3441  157.7142   -7.8352 H   0  0  0  0  0  0  0  0  0  0  0  0
   59.0842  157.6042   -8.1254 H   0  0  0  0  0  0  0  0  0  0  0  0
   60.6722  158.0512   -6.2941 H   0  0  0  0  0  0  0  0  0  0  0  0
   60.0745  158.5346   -4.7093 H   0  0  0  0  0  0  0  0  0  0  0  0
   61.0735  160.4202   -6.0622 H   0  0  0  0  0  0  0  0  0  0  0  0
   58.3775  163.8680   -4.9947 H   0  0  0  0  0  0  0  0  0  0  0  0
   59.7878  163.9304   -3.9145 H   0  0  0  0  0  0  0  0  0  0  0  0
   58.4553  162.8062   -3.5713 H   0  0  0  0  0  0  0  0  0  0  0  0
   59.0225  156.5969   -4.7438 H   0  0  0  0  0  0  0  0  0  0  0  0
   58.9646  156.0548   -6.4215 H   0  0  0  0  0  0  0  0  0  0  0  0
   52.5341  154.9272   -4.8896 H   0  0  0  0  0  0  0  0  0  0  0  0
   51.7628  155.5506   -3.4497 H   0  0  0  0  0  0  0  0  0  0  0  0
   60.5834  162.4796   -5.6017 H   0  0  0  0  0  0  0  0  0  0  0  0
  1  3  1  0  0  0  0
  1  4  2  0  0  0  0
  2  3  2  0  0  0  0
  2 19  1  0  0  0  0
  3  5  1  0  0  0  0
  4 13  1  0  0  0  0
  4 19  1  0  0  0  0
  5 15  1  0  0  0  0
  5 17  2  0  0  0  0
  6 11  1  0  0  0  0
  6 16  1  0  0  0  0
  6 18  2  0  0  0  0
  7  8  1  0  0  0  0
  7  9  1  0  0  0  0
  8 11  1  0  0  0  0
  9 14  1  0  0  0  0
 10 11  1  0  0  0  0
 10 14  1  0  0  0  0
 12 16  1  0  0  0  0
 13 14  1  0  0  0  0
  1 20  1  0  0  0  0
  2 21  1  0  0  0  0
  7 22  1  0  0  0  0
  7 23  1  0  0  0  0
  8 24  1  0  0  0  0
  8 25  1  0  0  0  0
  9 26  1  0  0  0  0
  9 27  1  0  0  0  0
 10 28  1  0  0  0  0
 10 29  1  0  0  0  0
 11 30  1  0  0  0  0
 12 31  1  0  0  0  0
 12 32  1  0  0  0  0
 12 33  1  0  0  0  0
 13 34  1  0  0  0  0
 13 35  1  0  0  0  0
 15 36  1  0  0  0  0
 15 37  1  0  0  0  0
 16 38  1  0  0  0  0
M  END
> <FRED Chemgauss4 score>
-7.693668

$$$$
C78950540	P123230102
  -OEChem-05122015073D

 35 36  0     0  0  0  0  0  0999 V2000
   57.1618  158.3719   -1.7821 C   0  0  0  0  0  0  0  0  0  0  0  0
   57.3685  158.4651   -3.1539 C   0  0  0  0  0  0  0  0  0  0  0  0
   54.9691  154.7487   -6.7943 C   0  0  0  0  0  0  0  0  0  0  0  0
   55.4829  156.0121   -6.5023 C   0  0  0  0  0  0  0  0  0  0  0  0
   57.1914  153.8117   -6.6508 C   0  0  0  0  0  0  0  0  0  0  0  0
   55.8592  158.2345   -1.3304 C   0  0  0  0  0  0  0  0  0  0  0  0
   55.8234  153.6484   -6.8686 C   0  0  0  0  0  0  0  0  0  0  0  0
   56.2817  158.4188   -4.0198 C   0  0  0  0  0  0  0  0  0  0  0  0
   56.8510  156.1754   -6.2845 C   0  0  0  0  0  0  0  0  0  0  0  0
   57.7052  155.0752   -6.3588 C   0  0  0  0  0  0  0  0  0  0  0  0
   55.0184  158.2791   -3.4680 C   0  0  0  0  0  0  0  0  0  0  0  0
   53.8311  158.2237   -4.3076 C   0  0  0  0  0  0  0  0  0  0  0  0
   55.2728  152.2982   -7.1811 C   0  0  0  0  0  0  0  0  0  0  0  0
   56.5001  158.5185   -5.5019 C   0  0  0  0  0  0  0  0  0  0  0  0
   54.7783  158.1856   -2.1408 N   0  0  0  0  0  0  0  0  0  0  0  0
   53.6021  159.2764   -5.0717 N   0  0  0  0  0  0  0  0  0  0  0  0
   52.9668  157.1251   -4.3174 N   0  0  0  0  0  0  0  0  0  0  0  0
   57.3375  157.4691   -5.9907 N   0  0  0  0  0  0  0  0  0  0  0  0
   52.4414  159.1246   -5.8370 O   0  0  0  0  0  0  0  0  0  0  0  0
   59.5744  155.2411   -6.0704 Br  0  0  0  0  0  0  0  0  0  0  0  0
   57.9939  158.4059   -1.0881 H   0  0  0  0  0  0  0  0  0  0  0  0
   58.3789  158.5746   -3.5383 H   0  0  0  0  0  0  0  0  0  0  0  0
   53.9018  154.6308   -6.9630 H   0  0  0  0  0  0  0  0  0  0  0  0
   54.8062  156.8612   -6.4475 H   0  0  0  0  0  0  0  0  0  0  0  0
   57.8493  152.9473   -6.7110 H   0  0  0  0  0  0  0  0  0  0  0  0
   55.6449  158.1564   -0.2695 H   0  0  0  0  0  0  0  0  0  0  0  0
   55.2707  152.1279   -8.2647 H   0  0  0  0  0  0  0  0  0  0  0  0
   55.8658  151.5061   -6.7057 H   0  0  0  0  0  0  0  0  0  0  0  0
   54.2450  152.1913   -6.8101 H   0  0  0  0  0  0  0  0  0  0  0  0
   55.5458  158.4655   -6.0372 H   0  0  0  0  0  0  0  0  0  0  0  0
   56.9691  159.4719   -5.7668 H   0  0  0  0  0  0  0  0  0  0  0  0
   53.1389  156.3016   -3.7521 H   0  0  0  0  0  0  0  0  0  0  0  0
   52.1553  157.0977   -4.9257 H   0  0  0  0  0  0  0  0  0  0  0  0
   58.3142  157.6296   -6.1420 H   0  0  0  0  0  0  0  0  0  0  0  0
   52.4206  159.9637   -6.3275 H   0  0  0  0  0  0  0  0  0  0  0  0
  1  2  2  0  0  0  0
  1  6  1  0  0  0  0
  2  8  1  0  0  0  0
  3  4  2  0  0  0  0
  3  7  1  0  0  0  0
  4  9  1  0  0  0  0
  5  7  2  0  0  0  0
  5 10  1  0  0  0  0
  6 15  2  0  0  0  0
  7 13  1  0  0  0  0
  8 11  2  0  0  0  0
  8 14  1  0  0  0  0
  9 10  2  0  0  0  0
  9 18  1  0  0  0  0
 10 20  1  0  0  0  0
 11 12  1  0  0  0  0
 11 15  1  0  0  0  0
 12 16  2  0  0  0  0
 12 17  1  0  0  0  0
 14 18  1  0  0  0  0
 16 19  1  0  0  0  0
  1 21  1  0  0  0  0
  2 22  1  0  0  0  0
  3 23  1  0  0  0  0
  4 24  1  0  0  0  0
  5 25  1  0  0  0  0
  6 26  1  0  0  0  0
 13 27  1  0  0  0  0
 13 28  1  0  0  0  0
 13 29  1  0  0  0  0
 14 30  1  0  0  0  0
 14 31  1  0  0  0  0
 17 32  1  0  0  0  0
 17 33  1  0  0  0  0
 18 34  1  0  0  0  0
 19 35  1  0  0  0  0
M  END
> <FRED Chemgauss4 score>
-7.691578

$$$$
C58195219	P87824751
  -OEChem-05122015073D

 40 42  0     1  0  0  0  0  0999 V2000
   59.5058  160.5716   -5.9077 C   0  0  0  0  0  0  0  0  0  0  0  0
   59.9701  162.8773   -5.3554 C   0  0  0  0  0  0  0  0  0  0  0  0
   60.5551  160.5804   -6.8267 C   0  0  0  0  0  0  0  0  0  0  0  0
   61.0194  162.8862   -6.2744 C   0  0  0  0  0  0  0  0  0  0  0  0
   55.0443  158.5528   -5.0898 C   0  0  0  0  0  0  0  0  0  0  0  0
   53.7150  158.5498   -5.4351 C   0  0  0  0  0  0  0  0  0  0  0  0
   59.2133  161.7201   -5.1721 C   0  0  0  0  0  0  0  0  0  0  0  0
   61.3119  161.7377   -7.0101 C   0  0  0  0  0  0  0  0  0  0  0  0
   55.0691  158.0359   -3.7806 C   0  0  0  0  0  0  0  0  0  0  0  0
   58.1072  161.7107   -4.2034 C   0  0  0  0  0  0  0  0  0  0  0  0
   56.4392  160.1275   -2.0069 C   0  0  0  0  0  0  0  0  0  0  0  0
   59.4115  160.3747   -0.9973 C   0  0  0  0  0  0  0  0  0  0  0  0
   58.1622  161.1353   -0.5609 C   0  0  0  0  0  0  0  0  0  0  0  0
   59.7112  160.9638   -2.3669 C   0  0  0  0  0  0  0  0  0  0  0  0
   57.3820  161.3072   -1.8597 C   0  0  1  0  0  0  0  0  0  0  0  0
   56.2703  157.8159   -2.9071 C   0  0  0  0  0  0  0  0  0  0  0  0
   53.8521  157.7272   -3.3250 N   0  0  0  0  0  0  0  0  0  0  0  0
   53.0501  158.0510   -4.3537 N   0  0  0  0  0  0  0  0  0  0  0  0
   58.4029  161.3391   -2.9001 N   0  0  0  0  0  0  0  0  0  0  0  0
   56.9925  159.0435   -2.6613 N   0  0  0  0  0  0  0  0  0  0  0  0
   56.9924  162.0210   -4.6184 O   0  0  0  0  0  0  0  0  0  0  0  0
   55.3017  160.2034   -1.5576 O   0  0  0  0  0  0  0  0  0  0  0  0
   62.7335  161.7497   -8.2552 Br  0  0  0  0  0  0  0  0  0  0  0  0
   58.9226  159.6643   -5.7727 H   0  0  0  0  0  0  0  0  0  0  0  0
   59.7507  163.7779   -4.7875 H   0  0  0  0  0  0  0  0  0  0  0  0
   60.7699  159.6772   -7.3920 H   0  0  0  0  0  0  0  0  0  0  0  0
   61.5993  163.7962   -6.4053 H   0  0  0  0  0  0  0  0  0  0  0  0
   55.8719  158.8827   -5.7008 H   0  0  0  0  0  0  0  0  0  0  0  0
   53.1942  158.8513   -6.3324 H   0  0  0  0  0  0  0  0  0  0  0  0
   60.2454  160.4904   -0.2994 H   0  0  0  0  0  0  0  0  0  0  0  0
   59.1887  159.3049   -1.0862 H   0  0  0  0  0  0  0  0  0  0  0  0
   57.6064  160.6056    0.2187 H   0  0  0  0  0  0  0  0  0  0  0  0
   58.4538  162.1178   -0.1699 H   0  0  0  0  0  0  0  0  0  0  0  0
   60.3167  161.8735   -2.2875 H   0  0  0  0  0  0  0  0  0  0  0  0
   60.2147  160.2554   -3.0311 H   0  0  0  0  0  0  0  0  0  0  0  0
   56.7781  162.2295   -1.8519 H   0  0  0  0  0  0  0  0  0  0  0  0
   55.9723  157.4001   -1.9384 H   0  0  0  0  0  0  0  0  0  0  0  0
   56.9651  157.1049   -3.3663 H   0  0  0  0  0  0  0  0  0  0  0  0
   52.0538  157.9046   -4.2499 H   0  0  0  0  0  0  0  0  0  0  0  0
   57.9526  159.1127   -2.9851 H   0  0  0  0  0  0  0  0  0  0  0  0
  1  3  1  0  0  0  0
  1  7  2  0  0  0  0
  2  4  2  0  0  0  0
  2  7  1  0  0  0  0
  3  8  2  0  0  0  0
  4  8  1  0  0  0  0
  5  6  2  0  0  0  0
  5  9  1  0  0  0  0
  6 18  1  0  0  0  0
  7 10  1  0  0  0  0
  8 23  1  0  0  0  0
  9 16  1  0  0  0  0
  9 17  2  0  0  0  0
 10 19  1  0  0  0  0
 10 21  2  0  0  0  0
 11 15  1  0  0  0  0
 11 20  1  0  0  0  0
 11 22  2  0  0  0  0
 12 13  1  0  0  0  0
 12 14  1  0  0  0  0
 13 15  1  0  0  0  0
 14 19  1  0  0  0  0
 15 19  1  0  0  0  0
 16 20  1  0  0  0  0
 17 18  1  0  0  0  0
  1 24  1  0  0  0  0
  2 25  1  0  0  0  0
  3 26  1  0  0  0  0
  4 27  1  0  0  0  0
  5 28  1  0  0  0  0
  6 29  1  0  0  0  0
 12 30  1  0  0  0  0
 12 31  1  0  0  0  0
 13 32  1  0  0  0  0
 13 33  1  0  0  0  0
 14 34  1  0  0  0  0
 14 35  1  0  0  0  0
 15 36  1  0  0  0  0
 16 37  1  0  0  0  0
 16 38  1  0  0  0  0
 18 39  1  0  0  0  0
 20 40  1  0  0  0  0
M  END
> <FRED Chemgauss4 score>
-7.686791

$$$$
C41058875	P62326300
  -OEChem-05122015073D

 35 36  0     1  0  0  0  0  0999 V2000
   55.3286  158.1897   -3.0309 C   0  0  0  0  0  0  0  0  0  0  0  0
   54.4699  157.2140   -4.6642 C   0  0  0  0  0  0  0  0  0  0  0  0
   57.3625  160.7430   -0.1089 C   0  0  0  0  0  0  0  0  0  0  0  0
   57.1574  159.2688    0.2267 C   0  0  0  0  0  0  0  0  0  0  0  0
   57.6630  160.9462   -1.5908 C   0  0  0  0  0  0  0  0  0  0  0  0
   56.0776  158.6359   -0.6491 C   0  0  0  0  0  0  0  0  0  0  0  0
   56.5857  160.3215   -2.4756 C   0  0  0  0  0  0  0  0  0  0  0  0
   56.3761  158.8319   -2.1469 C   0  0  0  0  0  0  0  0  0  0  0  0
   55.8516  154.6228   -5.5077 C   0  0  0  0  0  0  0  0  0  0  0  0
   55.3483  155.6870   -6.4753 C   0  0  0  0  0  0  0  0  0  0  0  0
   54.1602  156.5281   -5.9290 C   0  0  1  0  0  0  0  0  0  0  0  0
   55.6359  157.6492   -4.2466 N   0  0  0  0  0  0  0  0  0  0  0  0
   54.0458  158.1162   -2.6699 N   0  0  0  0  0  0  0  0  0  0  0  0
   53.5184  157.4881   -3.7317 N   0  0  0  0  0  0  0  0  0  0  0  0
   52.9665  155.6909   -5.8241 N   0  0  0  0  0  0  0  0  0  0  0  0
   56.4615  161.3074    0.1614 H   0  0  0  0  0  0  0  0  0  0  0  0
   58.1850  161.1466    0.4925 H   0  0  0  0  0  0  0  0  0  0  0  0
   58.1017  158.7277    0.0888 H   0  0  0  0  0  0  0  0  0  0  0  0
   56.8820  159.1662    1.2823 H   0  0  0  0  0  0  0  0  0  0  0  0
   57.7413  162.0175   -1.8072 H   0  0  0  0  0  0  0  0  0  0  0  0
   58.6357  160.4996   -1.8312 H   0  0  0  0  0  0  0  0  0  0  0  0
   56.0018  157.5663   -0.4168 H   0  0  0  0  0  0  0  0  0  0  0  0
   55.1038  159.0782   -0.3996 H   0  0  0  0  0  0  0  0  0  0  0  0
   55.6443  160.8713   -2.3423 H   0  0  0  0  0  0  0  0  0  0  0  0
   56.8678  160.4392   -3.5293 H   0  0  0  0  0  0  0  0  0  0  0  0
   57.3315  158.3017   -2.3701 H   0  0  0  0  0  0  0  0  0  0  0  0
   55.0438  153.9438   -5.2167 H   0  0  0  0  0  0  0  0  0  0  0  0
   56.6399  154.0279   -5.9798 H   0  0  0  0  0  0  0  0  0  0  0  0
   56.2683  155.0723   -4.6010 H   0  0  0  0  0  0  0  0  0  0  0  0
   56.1864  156.3437   -6.7403 H   0  0  0  0  0  0  0  0  0  0  0  0
   55.0309  155.1891   -7.4005 H   0  0  0  0  0  0  0  0  0  0  0  0
   53.8962  157.2573   -6.7261 H   0  0  0  0  0  0  0  0  0  0  0  0
   52.5255  157.2867   -3.7450 H   0  0  0  0  0  0  0  0  0  0  0  0
   52.8661  154.9371   -6.4677 H   0  0  0  0  0  0  0  0  0  0  0  0
   52.2129  156.0195   -5.2613 H   0  0  0  0  0  0  0  0  0  0  0  0
  1  8  1  0  0  0  0
  1 12  1  0  0  0  0
  1 13  2  0  0  0  0
  2 11  1  0  0  0  0
  2 12  2  0  0  0  0
  2 14  1  0  0  0  0
  3  4  1  0  0  0  0
  3  5  1  0  0  0  0
  4  6  1  0  0  0  0
  5  7  1  0  0  0  0
  6  8  1  0  0  0  0
  7  8  1  0  0  0  0
  9 10  1  0  0  0  0
 10 11  1  0  0  0  0
 11 15  1  0  0  0  0
 13 14  1  0  0  0  0
  3 16  1  0  0  0  0
  3 17  1  0  0  0  0
  4 18  1  0  0  0  0
  4 19  1  0  0  0  0
  5 20  1  0  0  0  0
  5 21  1  0  0  0  0
  6 22  1  0  0  0  0
  6 23  1  0  0  0  0
  7 24  1  0  0  0  0
  7 25  1  0  0  0  0
  8 26  1  0  0  0  0
  9 27  1  0  0  0  0
  9 28  1  0  0  0  0
  9 29  1  0  0  0  0
 10 30  1  0  0  0  0
 10 31  1  0  0  0  0
 11 32  1  0  0  0  0
 14 33  1  0  0  0  0
 15 34  1  0  0  0  0
 15 35  1  0  0  0  0
M  END
> <FRED Chemgauss4 score>
-7.669776

$$$$
C45109192	P68000615
  -OEChem-05122015073D

 37 37  0     0  0  0  0  0  0999 V2000
   58.2610  161.7062   -4.6736 C   0  0  0  0  0  0  0  0  0  0  0  0
   58.6453  161.9842   -3.3830 C   0  0  0  0  0  0  0  0  0  0  0  0
   59.3556  159.9995   -4.0259 C   0  0  0  0  0  0  0  0  0  0  0  0
   53.8713  155.9922   -3.2508 C   0  0  0  0  0  0  0  0  0  0  0  0
   55.6749  157.7867   -1.1906 C   0  0  0  0  0  0  0  0  0  0  0  0
   53.5898  155.9483   -4.7310 C   0  0  0  0  0  0  0  0  0  0  0  0
   55.7595  156.3585   -1.6651 C   0  0  0  0  0  0  0  0  0  0  0  0
   59.1457  159.7539   -0.7831 C   0  0  0  0  0  0  0  0  0  0  0  0
   57.7430  160.3191   -0.5451 C   0  0  0  0  0  0  0  0  0  0  0  0
   59.9683  160.6814   -1.6770 C   0  0  0  0  0  0  0  0  0  0  0  0
   56.8720  159.3910    0.2951 C   0  0  0  0  0  0  0  0  0  0  0  0
   58.7060  160.4692   -5.0677 N   0  0  0  0  0  0  0  0  0  0  0  0
   59.3452  160.8815   -2.9812 N   0  0  0  0  0  0  0  0  0  0  0  0
   52.1637  155.6684   -4.9537 N   0  0  0  0  0  0  0  0  0  0  0  0
   55.2002  156.2552   -3.0208 N   0  0  0  0  0  0  0  0  0  0  0  0
   56.7069  158.0983   -0.3095 N   0  0  0  0  0  0  0  0  0  0  0  0
   53.0098  155.8158   -2.3935 O   0  0  0  0  0  0  0  0  0  0  0  0
   54.7974  158.5673   -1.5499 O   0  0  0  0  0  0  0  0  0  0  0  0
   57.6865  162.3340   -5.3390 H   0  0  0  0  0  0  0  0  0  0  0  0
   58.4868  162.8390   -2.7405 H   0  0  0  0  0  0  0  0  0  0  0  0
   59.8480  159.0383   -3.9695 H   0  0  0  0  0  0  0  0  0  0  0  0
   53.8425  156.9121   -5.1828 H   0  0  0  0  0  0  0  0  0  0  0  0
   54.1878  155.1609   -5.1991 H   0  0  0  0  0  0  0  0  0  0  0  0
   56.8051  156.0370   -1.6814 H   0  0  0  0  0  0  0  0  0  0  0  0
   55.1916  155.7098   -0.9918 H   0  0  0  0  0  0  0  0  0  0  0  0
   59.0696  158.7625   -1.2470 H   0  0  0  0  0  0  0  0  0  0  0  0
   59.6620  159.6139    0.1743 H   0  0  0  0  0  0  0  0  0  0  0  0
   57.8198  161.2983   -0.0568 H   0  0  0  0  0  0  0  0  0  0  0  0
   57.2513  160.4775   -1.5126 H   0  0  0  0  0  0  0  0  0  0  0  0
   60.9726  160.2750   -1.8464 H   0  0  0  0  0  0  0  0  0  0  0  0
   60.0924  161.6672   -1.2130 H   0  0  0  0  0  0  0  0  0  0  0  0
   57.3343  159.2289    1.2740 H   0  0  0  0  0  0  0  0  0  0  0  0
   55.8763  159.8166    0.4550 H   0  0  0  0  0  0  0  0  0  0  0  0
   51.9050  155.2670   -5.8235 H   0  0  0  0  0  0  0  0  0  0  0  0
   51.5126  156.0731   -4.3236 H   0  0  0  0  0  0  0  0  0  0  0  0
   55.8118  156.3814   -3.8076 H   0  0  0  0  0  0  0  0  0  0  0  0
   57.3824  157.3691   -0.0808 H   0  0  0  0  0  0  0  0  0  0  0  0
  1  2  2  0  0  0  0
  1 12  1  0  0  0  0
  2 13  1  0  0  0  0
  3 12  2  0  0  0  0
  3 13  1  0  0  0  0
  4  6  1  0  0  0  0
  4 15  1  0  0  0  0
  4 17  2  0  0  0  0
  5  7  1  0  0  0  0
  5 16  1  0  0  0  0
  5 18  2  0  0  0  0
  6 14  1  0  0  0  0
  7 15  1  0  0  0  0
  8  9  1  0  0  0  0
  8 10  1  0  0  0  0
  9 11  1  0  0  0  0
 10 13  1  0  0  0  0
 11 16  1  0  0  0  0
  1 19  1  0  0  0  0
  2 20  1  0  0  0  0
  3 21  1  0  0  0  0
  6 22  1  0  0  0  0
  6 23  1  0  0  0  0
  7 24  1  0  0  0  0
  7 25  1  0  0  0  0
  8 26  1  0  0  0  0
  8 27  1  0  0  0  0
  9 28  1  0  0  0  0
  9 29  1  0  0  0  0
 10 30  1  0  0  0  0
 10 31  1  0  0  0  0
 11 32  1  0  0  0  0
 11 33  1  0  0  0  0
 14 34  1  0  0  0  0
 14 35  1  0  0  0  0
 15 36  1  0  0  0  0
 16 37  1  0  0  0  0
M  END
> <FRED Chemgauss4 score>
-7.662826

$$$$
C36285937	P53923458
  -OEChem-05122015073D

 40 41  0     0  0  0  0  0  0999 V2000
   57.1016  159.8074   -2.4993 C   0  0  0  0  0  0  0  0  0  0  0  0
   57.3014  161.8974   -4.3362 C   0  0  0  0  0  0  0  0  0  0  0  0
   58.3432  160.3833   -2.7680 C   0  0  0  0  0  0  0  0  0  0  0  0
   58.4431  161.4284   -3.6864 C   0  0  0  0  0  0  0  0  0  0  0  0
   55.9598  160.2763   -3.1491 C   0  0  0  0  0  0  0  0  0  0  0  0
   56.0597  161.3214   -4.0675 C   0  0  0  0  0  0  0  0  0  0  0  0
   53.6585  156.3857   -3.1745 C   0  0  0  0  0  0  0  0  0  0  0  0
   54.7093  156.7620   -5.4613 C   0  0  0  0  0  0  0  0  0  0  0  0
   52.8373  155.3829   -3.9788 C   0  0  0  0  0  0  0  0  0  0  0  0
   53.3919  156.4626   -6.1755 C   0  0  0  0  0  0  0  0  0  0  0  0
   54.5414  157.3097   -4.0377 C   0  0  0  0  0  0  0  0  0  0  0  0
   59.7909  160.5344   -0.8873 C   0  0  0  0  0  0  0  0  0  0  0  0
   59.6665  163.0616   -4.9078 C   0  0  0  0  0  0  0  0  0  0  0  0
   54.0049  158.6730   -4.0681 N   0  5  0  0  0  0  0  0  0  0  0  0
   52.3298  156.0424   -5.2116 N   0  3  0  0  0  0  0  0  0  0  0  0
   53.5266  160.6255   -2.4505 O   0  0  0  0  0  0  0  0  0  0  0  0
   54.7290  158.6676   -1.5916 O   0  0  0  0  0  0  0  0  0  0  0  0
   59.4511  159.9168   -2.1271 O   0  0  0  0  0  0  0  0  0  0  0  0
   59.6501  161.9988   -3.9567 O   0  0  0  0  0  0  0  0  0  0  0  0
   54.3896  159.4861   -2.7534 S   0  0  0  0  0  0  0  0  0  0  0  0
   54.5474  162.0066   -4.9876 Br  0  0  0  0  0  0  0  0  0  0  0  0
   57.0317  158.9935   -1.7815 H   0  0  0  0  0  0  0  0  0  0  0  0
   57.3933  162.7128   -5.0503 H   0  0  0  0  0  0  0  0  0  0  0  0
   52.9841  156.9809   -2.5402 H   0  0  0  0  0  0  0  0  0  0  0  0
   54.3117  155.8287   -2.4844 H   0  0  0  0  0  0  0  0  0  0  0  0
   55.2944  155.8292   -5.4102 H   0  0  0  0  0  0  0  0  0  0  0  0
   55.3027  157.4557   -6.0776 H   0  0  0  0  0  0  0  0  0  0  0  0
   53.4504  154.5347   -4.2983 H   0  0  0  0  0  0  0  0  0  0  0  0
   51.9715  155.0087   -3.4230 H   0  0  0  0  0  0  0  0  0  0  0  0
   53.0057  157.3379   -6.7251 H   0  0  0  0  0  0  0  0  0  0  0  0
   53.5102  155.6365   -6.8959 H   0  0  0  0  0  0  0  0  0  0  0  0
   55.5431  157.3406   -3.5713 H   0  0  0  0  0  0  0  0  0  0  0  0
   60.6931  160.0690   -0.4827 H   0  0  0  0  0  0  0  0  0  0  0  0
   58.9625  160.4209   -0.1835 H   0  0  0  0  0  0  0  0  0  0  0  0
   59.9776  161.5972   -1.0590 H   0  0  0  0  0  0  0  0  0  0  0  0
   60.6893  163.4262   -5.0303 H   0  0  0  0  0  0  0  0  0  0  0  0
   59.0186  163.8711   -4.5622 H   0  0  0  0  0  0  0  0  0  0  0  0
   59.2985  162.6869   -5.8659 H   0  0  0  0  0  0  0  0  0  0  0  0
   51.6649  155.4136   -5.6910 H   0  0  0  0  0  0  0  0  0  0  0  0
   51.7726  156.8708   -4.9475 H   0  0  0  0  0  0  0  0  0  0  0  0
  1  3  1  0  0  0  0
  1  5  2  0  0  0  0
  2  4  1  0  0  0  0
  2  6  2  0  0  0  0
  3  4  2  0  0  0  0
  3 18  1  0  0  0  0
  4 19  1  0  0  0  0
  5  6  1  0  0  0  0
  5 20  1  0  0  0  0
  6 21  1  0  0  0  0
  7  9  1  0  0  0  0
  7 11  1  0  0  0  0
  8 10  1  0  0  0  0
  8 11  1  0  0  0  0
  9 15  1  0  0  0  0
 10 15  1  0  0  0  0
 11 14  1  0  0  0  0
 12 18  1  0  0  0  0
 13 19  1  0  0  0  0
 14 20  1  0  0  0  0
 16 20  2  0  0  0  0
 17 20  2  0  0  0  0
  1 22  1  0  0  0  0
  2 23  1  0  0  0  0
  7 24  1  0  0  0  0
  7 25  1  0  0  0  0
  8 26  1  0  0  0  0
  8 27  1  0  0  0  0
  9 28  1  0  0  0  0
  9 29  1  0  0  0  0
 10 30  1  0  0  0  0
 10 31  1  0  0  0  0
 11 32  1  0  0  0  0
 12 33  1  0  0  0  0
 12 34  1  0  0  0  0
 12 35  1  0  0  0  0
 13 36  1  0  0  0  0
 13 37  1  0  0  0  0
 13 38  1  0  0  0  0
 15 39  1  0  0  0  0
 15 40  1  0  0  0  0
M  CHG  2  14  -1  15   1
M  END
> <FRED Chemgauss4 score>
-7.662662

$$$$
C44170752	P130288104
  -OEChem-05122015073D

 35 36  0     1  0  0  0  0  0999 V2000
   62.1913  162.4310   -5.4683 C   0  0  0  0  0  0  0  0  0  0  0  0
   61.0745  162.5187   -5.0368 C   0  0  0  0  0  0  0  0  0  0  0  0
   55.3888  156.1026   -4.1144 C   0  0  0  0  0  0  0  0  0  0  0  0
   56.3010  157.0623   -4.2562 C   0  0  0  0  0  0  0  0  0  0  0  0
   54.4031  156.2862   -3.0175 C   0  0  0  0  0  0  0  0  0  0  0  0
   55.3903  158.3208   -2.4008 C   0  0  0  0  0  0  0  0  0  0  0  0
   57.7258  161.4592   -4.0578 C   0  0  1  0  0  0  0  0  0  0  0  0
   56.8943  160.2973   -4.5585 C   0  0  2  0  0  0  0  0  0  0  0  0
   57.7788  161.1914   -2.5598 C   0  0  1  0  0  0  0  0  0  0  0  0
   57.3702  159.1624   -3.6682 C   0  0  2  0  0  0  0  0  0  0  0  0
   59.7136  162.6281   -4.5106 C   0  0  0  0  0  0  0  0  0  0  0  0
   56.5958  161.7778   -1.8012 C   0  0  0  0  0  0  0  0  0  0  0  0
   54.4332  157.3340   -2.2364 N   0  0  0  0  0  0  0  0  0  0  0  0
   56.3486  158.1811   -3.4375 N   0  0  0  0  0  0  0  0  0  0  0  0
   53.4435  155.3172   -2.8372 N   0  0  0  0  0  0  0  0  0  0  0  0
   55.4039  159.3016   -1.6548 O   0  0  0  0  0  0  0  0  0  0  0  0
   57.7405  159.7549   -2.4126 O   0  0  0  0  0  0  0  0  0  0  0  0
   57.1072  160.0374   -5.9309 O   0  0  0  0  0  0  0  0  0  0  0  0
   56.8332  163.1582   -1.5880 O   0  0  0  0  0  0  0  0  0  0  0  0
   59.0562  161.3719   -4.5675 O   0  0  0  0  0  0  0  0  0  0  0  0
   63.1821  162.3534   -5.8513 H   0  0  0  0  0  0  0  0  0  0  0  0
   55.3469  155.2283   -4.7499 H   0  0  0  0  0  0  0  0  0  0  0  0
   57.0576  157.0076   -5.0311 H   0  0  0  0  0  0  0  0  0  0  0  0
   57.3233  162.4383   -4.3305 H   0  0  0  0  0  0  0  0  0  0  0  0
   55.8294  160.5056   -4.4044 H   0  0  0  0  0  0  0  0  0  0  0  0
   58.7140  161.5449   -2.1117 H   0  0  0  0  0  0  0  0  0  0  0  0
   58.2407  158.6403   -4.0822 H   0  0  0  0  0  0  0  0  0  0  0  0
   59.1241  163.3543   -5.0786 H   0  0  0  0  0  0  0  0  0  0  0  0
   59.7296  162.9511   -3.4654 H   0  0  0  0  0  0  0  0  0  0  0  0
   56.4852  161.2800   -0.8368 H   0  0  0  0  0  0  0  0  0  0  0  0
   55.6805  161.6569   -2.3823 H   0  0  0  0  0  0  0  0  0  0  0  0
   53.4499  154.5360   -3.4475 H   0  0  0  0  0  0  0  0  0  0  0  0
   52.7871  155.4419   -2.1048 H   0  0  0  0  0  0  0  0  0  0  0  0
   56.5413  159.2834   -6.1728 H   0  0  0  0  0  0  0  0  0  0  0  0
   56.0660  163.5075   -1.1036 H   0  0  0  0  0  0  0  0  0  0  0  0
  1  2  3  0  0  0  0
  2 11  1  0  0  0  0
  3  4  2  0  0  0  0
  3  5  1  0  0  0  0
  4 14  1  0  0  0  0
  5 13  2  0  0  0  0
  5 15  1  0  0  0  0
  6 13  1  0  0  0  0
  6 14  1  0  0  0  0
  6 16  2  0  0  0  0
  7  8  1  0  0  0  0
  7  9  1  0  0  0  0
  7 20  1  0  0  0  0
  8 10  1  0  0  0  0
  8 18  1  0  0  0  0
  9 12  1  0  0  0  0
  9 17  1  0  0  0  0
 10 14  1  0  0  0  0
 10 17  1  0  0  0  0
 11 20  1  0  0  0  0
 12 19  1  0  0  0  0
  1 21  1  0  0  0  0
  3 22  1  0  0  0  0
  4 23  1  0  0  0  0
  7 24  1  0  0  0  0
  8 25  1  0  0  0  0
  9 26  1  0  0  0  0
 10 27  1  0  0  0  0
 11 28  1  0  0  0  0
 11 29  1  0  0  0  0
 12 30  1  0  0  0  0
 12 31  1  0  0  0  0
 15 32  1  0  0  0  0
 15 33  1  0  0  0  0
 18 34  1  0  0  0  0
 19 35  1  0  0  0  0
M  END
> <FRED Chemgauss4 score>
-7.655872

$$$$
C36864484	P54786761
  -OEChem-05122015073D

 30 31  0     0  0  0  0  0  0999 V2000
   59.9146  156.3980   -8.6085 C   0  0  0  0  0  0  0  0  0  0  0  0
   59.6740  157.7487   -8.3571 C   0  0  0  0  0  0  0  0  0  0  0  0
   58.3984  155.7961   -6.8264 C   0  0  0  0  0  0  0  0  0  0  0  0
   55.5087  156.8150   -4.0015 C   0  0  0  0  0  0  0  0  0  0  0  0
   58.1578  157.1468   -6.5749 C   0  0  0  0  0  0  0  0  0  0  0  0
   59.2768  155.4216   -7.8432 C   0  0  0  0  0  0  0  0  0  0  0  0
   58.7956  158.1231   -7.3403 C   0  0  0  0  0  0  0  0  0  0  0  0
   55.0801  157.1600   -2.7057 C   0  0  0  0  0  0  0  0  0  0  0  0
   54.3499  156.7217   -4.7330 C   0  0  0  0  0  0  0  0  0  0  0  0
   55.9107  157.3888   -1.5101 C   0  0  0  0  0  0  0  0  0  0  0  0
   54.0970  156.3997   -6.1476 C   0  0  0  0  0  0  0  0  0  0  0  0
   56.9144  156.5981   -4.4824 C   0  0  0  0  0  0  0  0  0  0  0  0
   53.7527  157.2780   -2.6160 N   0  0  0  0  0  0  0  0  0  0  0  0
   53.3372  157.0057   -3.8647 N   0  0  0  0  0  0  0  0  0  0  0  0
   57.2625  157.4951   -5.5385 N   0  0  0  0  0  0  0  0  0  0  0  0
   59.5741  153.7553   -8.1542 Cl  0  0  0  0  0  0  0  0  0  0  0  0
   58.5258  159.8066   -7.0632 Cl  0  0  0  0  0  0  0  0  0  0  0  0
   60.6014  156.1208   -9.4042 H   0  0  0  0  0  0  0  0  0  0  0  0
   60.1788  158.4970   -8.9628 H   0  0  0  0  0  0  0  0  0  0  0  0
   57.9000  155.0361   -6.2281 H   0  0  0  0  0  0  0  0  0  0  0  0
   56.2088  158.4477   -1.4272 H   0  0  0  0  0  0  0  0  0  0  0  0
   55.3832  157.1174   -0.5787 H   0  0  0  0  0  0  0  0  0  0  0  0
   56.8339  156.7828   -1.5226 H   0  0  0  0  0  0  0  0  0  0  0  0
   53.9573  155.3147   -6.2928 H   0  0  0  0  0  0  0  0  0  0  0  0
   53.1951  156.9058   -6.5358 H   0  0  0  0  0  0  0  0  0  0  0  0
   54.9275  156.7185   -6.8028 H   0  0  0  0  0  0  0  0  0  0  0  0
   57.6290  156.7455   -3.6654 H   0  0  0  0  0  0  0  0  0  0  0  0
   57.0498  155.5764   -4.8527 H   0  0  0  0  0  0  0  0  0  0  0  0
   52.3428  157.0297   -4.0540 H   0  0  0  0  0  0  0  0  0  0  0  0
   56.8695  158.4155   -5.5715 H   0  0  0  0  0  0  0  0  0  0  0  0
  1  2  2  0  0  0  0
  1  6  1  0  0  0  0
  2  7  1  0  0  0  0
  3  5  1  0  0  0  0
  3  6  2  0  0  0  0
  4  8  1  0  0  0  0
  4  9  2  0  0  0  0
  4 12  1  0  0  0  0
  5  7  2  0  0  0  0
  5 15  1  0  0  0  0
  6 16  1  0  0  0  0
  7 17  1  0  0  0  0
  8 10  1  0  0  0  0
  8 13  2  0  0  0  0
  9 11  1  0  0  0  0
  9 14  1  0  0  0  0
 12 15  1  0  0  0  0
 13 14  1  0  0  0  0
  1 18  1  0  0  0  0
  2 19  1  0  0  0  0
  3 20  1  0  0  0  0
 10 21  1  0  0  0  0
 10 22  1  0  0  0  0
 10 23  1  0  0  0  0
 11 24  1  0  0  0  0
 11 25  1  0  0  0  0
 11 26  1  0  0  0  0
 12 27  1  0  0  0  0
 12 28  1  0  0  0  0
 14 29  1  0  0  0  0
 15 30  1  0  0  0  0
M  END
> <FRED Chemgauss4 score>
-7.655409

$$$$
C90670312	P141810387
  -OEChem-05122015073D

 30 31  0     1  0  0  0  0  0999 V2000
   55.4355  155.4470   -6.5120 C   0  0  0  0  0  0  0  0  0  0  0  0
   55.9181  156.6076   -6.0119 C   0  0  0  0  0  0  0  0  0  0  0  0
   56.3833  154.4207   -6.9595 C   0  0  0  0  0  0  0  0  0  0  0  0
   58.1138  155.9377   -6.3088 C   0  0  0  0  0  0  0  0  0  0  0  0
   58.3779  153.5989   -7.3232 C   0  0  0  0  0  0  0  0  0  0  0  0
   59.5943  156.1709   -6.2132 C   0  0  0  0  0  0  0  0  0  0  0  0
   55.4108  158.5902   -4.6932 C   0  0  0  0  0  0  0  0  0  0  0  0
   54.6998  159.7448   -2.5325 C   0  0  0  0  0  0  0  0  0  0  0  0
   54.2488  159.0282   -3.8016 C   0  0  2  0  0  0  0  0  0  0  0  0
   57.2840  156.8529   -5.9103 N   0  0  0  0  0  0  0  0  0  0  0  0
   56.1236  153.2559   -7.4628 N   0  0  0  0  0  0  0  0  0  0  0  0
   57.3539  152.7133   -7.7025 N   0  0  0  0  0  0  0  0  0  0  0  0
   57.6990  154.7219   -6.8339 N   0  0  0  0  0  0  0  0  0  0  0  0
   55.0102  157.5578   -5.5988 N   0  0  0  0  0  0  0  0  0  0  0  0
   59.5801  153.4031   -7.4134 O   0  0  0  0  0  0  0  0  0  0  0  0
   55.0337  161.0906   -2.8580 O   0  0  0  0  0  0  0  0  0  0  0  0
   53.4737  157.8882   -3.4284 O   0  0  0  0  0  0  0  0  0  0  0  0
   54.3755  155.2376   -6.6004 H   0  0  0  0  0  0  0  0  0  0  0  0
   59.9535  155.8201   -5.2490 H   0  0  0  0  0  0  0  0  0  0  0  0
   59.8004  157.2335   -6.3161 H   0  0  0  0  0  0  0  0  0  0  0  0
   60.0975  155.6294   -7.0106 H   0  0  0  0  0  0  0  0  0  0  0  0
   55.7718  159.4404   -5.2817 H   0  0  0  0  0  0  0  0  0  0  0  0
   56.2432  158.2282   -4.0808 H   0  0  0  0  0  0  0  0  0  0  0  0
   55.5882  159.2685   -2.1065 H   0  0  0  0  0  0  0  0  0  0  0  0
   53.9025  159.7743   -1.7829 H   0  0  0  0  0  0  0  0  0  0  0  0
   53.5827  159.6862   -4.3722 H   0  0  0  0  0  0  0  0  0  0  0  0
   57.5080  151.7956   -8.1002 H   0  0  0  0  0  0  0  0  0  0  0  0
   54.0974  157.4747   -5.9626 H   0  0  0  0  0  0  0  0  0  0  0  0
   55.3146  161.5139   -2.0317 H   0  0  0  0  0  0  0  0  0  0  0  0
   53.1485  157.4969   -4.2531 H   0  0  0  0  0  0  0  0  0  0  0  0
  1  2  2  0  0  0  0
  1  3  1  0  0  0  0
  2 10  1  0  0  0  0
  2 14  1  0  0  0  0
  3 11  2  0  0  0  0
  3 13  1  0  0  0  0
  4  6  1  0  0  0  0
  4 10  2  0  0  0  0
  4 13  1  0  0  0  0
  5 12  1  0  0  0  0
  5 13  1  0  0  0  0
  5 15  2  0  0  0  0
  7  9  1  0  0  0  0
  7 14  1  0  0  0  0
  8  9  1  0  0  0  0
  8 16  1  0  0  0  0
  9 17  1  0  0  0  0
 11 12  1  0  0  0  0
  1 18  1  0  0  0  0
  6 19  1  0  0  0  0
  6 20  1  0  0  0  0
  6 21  1  0  0  0  0
  7 22  1  0  0  0  0
  7 23  1  0  0  0  0
  8 24  1  0  0  0  0
  8 25  1  0  0  0  0
  9 26  1  0  0  0  0
 12 27  1  0  0  0  0
 14 28  1  0  0  0  0
 16 29  1  0  0  0  0
 17 30  1  0  0  0  0
M  END
> <FRED Chemgauss4 score>
-7.633759

$$$$
C90952384	P142286690
  -OEChem-05122015073D

 35 36  0     0  0  0  0  0  0999 V2000
   58.1640  163.3345   -3.8481 C   0  0  0  0  0  0  0  0  0  0  0  0
   59.4052  163.6594   -4.3952 C   0  0  0  0  0  0  0  0  0  0  0  0
   57.6502  162.0467   -4.0004 C   0  0  0  0  0  0  0  0  0  0  0  0
   59.6189  161.4087   -5.2471 C   0  0  0  0  0  0  0  0  0  0  0  0
   57.6534  156.5369   -6.5454 C   0  0  0  0  0  0  0  0  0  0  0  0
   60.1326  162.6966   -5.0947 C   0  0  0  0  0  0  0  0  0  0  0  0
   58.3776  161.0838   -4.6999 C   0  0  0  0  0  0  0  0  0  0  0  0
   57.6161  157.4735   -5.5338 C   0  0  0  0  0  0  0  0  0  0  0  0
   56.1268  156.0723   -4.7409 C   0  0  0  0  0  0  0  0  0  0  0  0
   61.4265  163.0367   -5.6646 C   0  0  0  0  0  0  0  0  0  0  0  0
   58.4398  158.6945   -5.5170 C   0  0  0  0  0  0  0  0  0  0  0  0
   61.5872  162.9008   -7.1510 C   0  0  0  0  0  0  0  0  0  0  0  0
   55.1152  155.4613   -3.8515 C   0  0  0  0  0  0  0  0  0  0  0  0
   54.2758  156.4828   -3.0645 C   0  0  0  0  0  0  0  0  0  0  0  0
   56.7410  157.2090   -4.4984 N   0  0  0  0  0  0  0  0  0  0  0  0
   53.3168  155.8472   -2.2011 N   0  0  0  0  0  0  0  0  0  0  0  0
   57.8637  159.7956   -4.8518 N   0  0  0  0  0  0  0  0  0  0  0  0
   62.4032  163.4237   -5.0192 O   0  0  0  0  0  0  0  0  0  0  0  0
   59.5314  158.7289   -6.0811 O   0  0  0  0  0  0  0  0  0  0  0  0
   56.5536  155.2682   -6.1957 S   0  0  0  0  0  0  0  0  0  0  0  0
   57.5976  164.0841   -3.3031 H   0  0  0  0  0  0  0  0  0  0  0  0
   59.7948  164.6665   -4.2710 H   0  0  0  0  0  0  0  0  0  0  0  0
   56.6814  161.8046   -3.5702 H   0  0  0  0  0  0  0  0  0  0  0  0
   60.1858  160.6578   -5.7936 H   0  0  0  0  0  0  0  0  0  0  0  0
   58.2528  156.5318   -7.4450 H   0  0  0  0  0  0  0  0  0  0  0  0
   61.3318  163.8129   -7.7132 H   0  0  0  0  0  0  0  0  0  0  0  0
   60.9969  162.0745   -7.5766 H   0  0  0  0  0  0  0  0  0  0  0  0
   62.6257  162.6849   -7.4590 H   0  0  0  0  0  0  0  0  0  0  0  0
   55.6092  154.7913   -3.1214 H   0  0  0  0  0  0  0  0  0  0  0  0
   54.4303  154.7998   -4.4181 H   0  0  0  0  0  0  0  0  0  0  0  0
   54.9126  157.1034   -2.4262 H   0  0  0  0  0  0  0  0  0  0  0  0
   53.7240  157.1432   -3.7415 H   0  0  0  0  0  0  0  0  0  0  0  0
   52.4856  156.3508   -1.9356 H   0  0  0  0  0  0  0  0  0  0  0  0
   53.5771  155.0040   -1.7149 H   0  0  0  0  0  0  0  0  0  0  0  0
   56.9462  159.6278   -4.4233 H   0  0  0  0  0  0  0  0  0  0  0  0
  1  2  2  0  0  0  0
  1  3  1  0  0  0  0
  2  6  1  0  0  0  0
  3  7  2  0  0  0  0
  4  6  2  0  0  0  0
  4  7  1  0  0  0  0
  5  8  2  0  0  0  0
  5 20  1  0  0  0  0
  6 10  1  0  0  0  0
  7 17  1  0  0  0  0
  8 11  1  0  0  0  0
  8 15  1  0  0  0  0
  9 13  1  0  0  0  0
  9 15  2  0  0  0  0
  9 20  1  0  0  0  0
 10 12  1  0  0  0  0
 10 18  2  0  0  0  0
 11 17  1  0  0  0  0
 11 19  2  0  0  0  0
 13 14  1  0  0  0  0
 14 16  1  0  0  0  0
  1 21  1  0  0  0  0
  2 22  1  0  0  0  0
  3 23  1  0  0  0  0
  4 24  1  0  0  0  0
  5 25  1  0  0  0  0
 12 26  1  0  0  0  0
 12 27  1  0  0  0  0
 12 28  1  0  0  0  0
 13 29  1  0  0  0  0
 13 30  1  0  0  0  0
 14 31  1  0  0  0  0
 14 32  1  0  0  0  0
 16 33  1  0  0  0  0
 16 34  1  0  0  0  0
 17 35  1  0  0  0  0
M  END
> <FRED Chemgauss4 score>
-7.624267

$$$$
C89508612	P139912302
  -OEChem-05122015073D

 40 42  0     1  0  0  0  0  0999 V2000
   59.9444  162.2523   -3.1414 C   0  0  0  0  0  0  0  0  0  0  0  0
   58.7124  162.5019   -3.8122 C   0  0  0  0  0  0  0  0  0  0  0  0
   59.7525  161.8718   -1.8315 C   0  0  0  0  0  0  0  0  0  0  0  0
   57.6256  162.3023   -2.9894 C   0  0  0  0  0  0  0  0  0  0  0  0
   54.6742  156.5286   -6.2462 C   0  0  0  0  0  0  0  0  0  0  0  0
   53.4757  157.0441   -5.9450 C   0  0  0  0  0  0  0  0  0  0  0  0
   53.7926  155.7445   -4.0283 C   0  0  0  0  0  0  0  0  0  0  0  0
   53.4158  160.2589   -6.0872 C   0  0  0  0  0  0  0  0  0  0  0  0
   55.7416  161.5599   -4.4477 C   0  0  0  0  0  0  0  0  0  0  0  0
   52.9825  163.3649   -6.1635 C   0  0  0  0  0  0  0  0  0  0  0  0
   53.5529  162.4672   -7.2589 C   0  0  0  0  0  0  0  0  0  0  0  0
   54.0699  163.3522   -5.0998 C   0  0  0  0  0  0  0  0  0  0  0  0
   54.3092  161.3963   -6.4815 C   0  0  1  0  0  0  0  0  0  0  0  0
   56.1693  162.4563   -3.3130 C   0  0  0  0  0  0  0  0  0  0  0  0
   52.6709  157.9860   -6.7667 C   0  0  0  0  0  0  0  0  0  0  0  0
   52.9864  156.6199   -4.7325 N   0  0  0  0  0  0  0  0  0  0  0  0
   54.7293  162.0578   -5.2531 N   0  0  0  0  0  0  0  0  0  0  0  0
   53.4526  159.1866   -6.9581 N   0  0  0  0  0  0  0  0  0  0  0  0
   53.5874  155.2291   -2.9412 O   0  0  0  0  0  0  0  0  0  0  0  0
   52.7425  160.3451   -5.0670 O   0  0  0  0  0  0  0  0  0  0  0  0
   56.2752  160.4609   -4.6078 O   0  0  0  0  0  0  0  0  0  0  0  0
   58.0924  161.8165   -1.4151 S   0  0  0  0  0  0  0  0  0  0  0  0
   55.2535  155.4667   -4.9970 S   0  0  0  0  0  0  0  0  0  0  0  0
   60.9220  162.3461   -3.5960 H   0  0  0  0  0  0  0  0  0  0  0  0
   58.6326  162.8105   -4.8469 H   0  0  0  0  0  0  0  0  0  0  0  0
   60.5077  161.6241   -1.0990 H   0  0  0  0  0  0  0  0  0  0  0  0
   55.2374  156.7282   -7.1468 H   0  0  0  0  0  0  0  0  0  0  0  0
   52.7524  164.3738   -6.5168 H   0  0  0  0  0  0  0  0  0  0  0  0
   52.0601  162.9274   -5.7636 H   0  0  0  0  0  0  0  0  0  0  0  0
   52.7731  162.0673   -7.9141 H   0  0  0  0  0  0  0  0  0  0  0  0
   54.2549  163.0461   -7.8714 H   0  0  0  0  0  0  0  0  0  0  0  0
   54.8150  164.1338   -5.2841 H   0  0  0  0  0  0  0  0  0  0  0  0
   53.6716  163.4700   -4.0884 H   0  0  0  0  0  0  0  0  0  0  0  0
   55.1699  160.9961   -7.0259 H   0  0  0  0  0  0  0  0  0  0  0  0
   55.5621  162.2218   -2.4370 H   0  0  0  0  0  0  0  0  0  0  0  0
   55.9398  163.4880   -3.5838 H   0  0  0  0  0  0  0  0  0  0  0  0
   51.7406  158.2171   -6.2421 H   0  0  0  0  0  0  0  0  0  0  0  0
   52.4448  157.5214   -7.7296 H   0  0  0  0  0  0  0  0  0  0  0  0
   52.0889  156.9299   -4.3762 H   0  0  0  0  0  0  0  0  0  0  0  0
   54.0578  159.2450   -7.7715 H   0  0  0  0  0  0  0  0  0  0  0  0
  1  2  1  0  0  0  0
  1  3  2  0  0  0  0
  2  4  2  0  0  0  0
  3 22  1  0  0  0  0
  4 14  1  0  0  0  0
  4 22  1  0  0  0  0
  5  6  2  0  0  0  0
  5 23  1  0  0  0  0
  6 15  1  0  0  0  0
  6 16  1  0  0  0  0
  7 16  1  0  0  0  0
  7 19  2  0  0  0  0
  7 23  1  0  0  0  0
  8 13  1  0  0  0  0
  8 18  1  0  0  0  0
  8 20  2  0  0  0  0
  9 14  1  0  0  0  0
  9 17  1  0  0  0  0
  9 21  2  0  0  0  0
 10 11  1  0  0  0  0
 10 12  1  0  0  0  0
 11 13  1  0  0  0  0
 12 17  1  0  0  0  0
 13 17  1  0  0  0  0
 15 18  1  0  0  0  0
  1 24  1  0  0  0  0
  2 25  1  0  0  0  0
  3 26  1  0  0  0  0
  5 27  1  0  0  0  0
 10 28  1  0  0  0  0
 10 29  1  0  0  0  0
 11 30  1  0  0  0  0
 11 31  1  0  0  0  0
 12 32  1  0  0  0  0
 12 33  1  0  0  0  0
 13 34  1  0  0  0  0
 14 35  1  0  0  0  0
 14 36  1  0  0  0  0
 15 37  1  0  0  0  0
 15 38  1  0  0  0  0
 16 39  1  0  0  0  0
 18 40  1  0  0  0  0
M  END
> <FRED Chemgauss4 score>
-7.613723

$$$$
C53110074	P79617208
  -OEChem-05122015073D

 38 39  0     1  0  0  0  0  0999 V2000
   58.6791  153.6467   -7.2687 C   0  0  0  0  0  0  0  0  0  0  0  0
   58.2880  156.0534   -7.0808 C   0  0  0  0  0  0  0  0  0  0  0  0
   57.4958  157.1248   -6.6685 C   0  0  0  0  0  0  0  0  0  0  0  0
   56.6552  154.5065   -6.1986 C   0  0  0  0  0  0  0  0  0  0  0  0
   57.8677  154.7442   -6.8459 C   0  0  0  0  0  0  0  0  0  0  0  0
   56.2832  156.8871   -6.0212 C   0  0  0  0  0  0  0  0  0  0  0  0
   55.8629  155.5780   -5.7863 C   0  0  0  0  0  0  0  0  0  0  0  0
   55.1559  161.0344   -4.7311 C   0  0  0  0  0  0  0  0  0  0  0  0
   56.3861  161.4922   -3.9433 C   0  0  0  0  0  0  0  0  0  0  0  0
   54.5939  159.7200   -4.1986 C   0  0  0  0  0  0  0  0  0  0  0  0
   57.0777  159.0686   -4.1420 C   0  0  0  0  0  0  0  0  0  0  0  0
   57.1604  160.3374   -3.2851 C   0  0  1  0  0  0  0  0  0  0  0  0
   55.6217  158.5697   -4.3016 C   0  0  1  0  0  0  0  0  0  0  0  0
   58.6115  160.7383   -3.0266 C   0  0  0  0  0  0  0  0  0  0  0  0
   55.2923  157.5017   -3.2482 C   0  0  0  0  0  0  0  0  0  0  0  0
   59.3382  152.7554   -7.6121 N   0  0  0  0  0  0  0  0  0  0  0  0
   55.5030  157.9483   -5.6131 N   0  0  0  0  0  0  0  0  0  0  0  0
   53.9858  157.0257   -3.4974 O   0  0  0  0  0  0  0  0  0  0  0  0
   54.6999  155.3383   -5.1639 F   0  0  0  0  0  0  0  0  0  0  0  0
   59.2300  156.2550   -7.5852 H   0  0  0  0  0  0  0  0  0  0  0  0
   57.8319  158.1412   -6.8570 H   0  0  0  0  0  0  0  0  0  0  0  0
   56.3143  153.4920   -6.0074 H   0  0  0  0  0  0  0  0  0  0  0  0
   54.3871  161.8162   -4.6963 H   0  0  0  0  0  0  0  0  0  0  0  0
   55.4278  160.9147   -5.7873 H   0  0  0  0  0  0  0  0  0  0  0  0
   57.0565  162.0493   -4.6208 H   0  0  0  0  0  0  0  0  0  0  0  0
   56.0696  162.2146   -3.1722 H   0  0  0  0  0  0  0  0  0  0  0  0
   54.2710  159.8510   -3.1641 H   0  0  0  0  0  0  0  0  0  0  0  0
   53.7017  159.4624   -4.7757 H   0  0  0  0  0  0  0  0  0  0  0  0
   57.4947  159.2763   -5.1319 H   0  0  0  0  0  0  0  0  0  0  0  0
   57.6954  158.2815   -3.7035 H   0  0  0  0  0  0  0  0  0  0  0  0
   56.6979  160.1337   -2.3047 H   0  0  0  0  0  0  0  0  0  0  0  0
   59.1085  160.9494   -3.9715 H   0  0  0  0  0  0  0  0  0  0  0  0
   59.1326  159.9271   -2.5218 H   0  0  0  0  0  0  0  0  0  0  0  0
   58.6412  161.6276   -2.4000 H   0  0  0  0  0  0  0  0  0  0  0  0
   55.3388  157.9447   -2.2572 H   0  0  0  0  0  0  0  0  0  0  0  0
   56.0026  156.6834   -3.3281 H   0  0  0  0  0  0  0  0  0  0  0  0
   54.8109  158.3219   -6.2439 H   0  0  0  0  0  0  0  0  0  0  0  0
   53.7910  156.3508   -2.8236 H   0  0  0  0  0  0  0  0  0  0  0  0
  1  5  1  0  0  0  0
  1 16  3  0  0  0  0
  2  3  2  0  0  0  0
  2  5  1  0  0  0  0
  3  6  1  0  0  0  0
  4  5  2  0  0  0  0
  4  7  1  0  0  0  0
  6  7  2  0  0  0  0
  6 17  1  0  0  0  0
  7 19  1  0  0  0  0
  8  9  1  0  0  0  0
  8 10  1  0  0  0  0
  9 12  1  0  0  0  0
 10 13  1  0  0  0  0
 11 12  1  0  0  0  0
 11 13  1  0  0  0  0
 12 14  1  0  0  0  0
 13 15  1  0  0  0  0
 13 17  1  0  0  0  0
 15 18  1  0  0  0  0
  2 20  1  0  0  0  0
  3 21  1  0  0  0  0
  4 22  1  0  0  0  0
  8 23  1  0  0  0  0
  8 24  1  0  0  0  0
  9 25  1  0  0  0  0
  9 26  1  0  0  0  0
 10 27  1  0  0  0  0
 10 28  1  0  0  0  0
 11 29  1  0  0  0  0
 11 30  1  0  0  0  0
 12 31  1  0  0  0  0
 14 32  1  0  0  0  0
 14 33  1  0  0  0  0
 14 34  1  0  0  0  0
 15 35  1  0  0  0  0
 15 36  1  0  0  0  0
 17 37  1  0  0  0  0
 18 38  1  0  0  0  0
M  END
> <FRED Chemgauss4 score>
-7.611978

$$$$
C80590635	P125852228
  -OEChem-05122015073D

 29 30  0     0  0  0  0  0  0999 V2000
   58.4891  160.7190   -3.0259 C   0  0  0  0  0  0  0  0  0  0  0  0
   57.1438  160.5862   -2.7004 C   0  0  0  0  0  0  0  0  0  0  0  0
   59.0040  159.8876   -4.0074 C   0  0  0  0  0  0  0  0  0  0  0  0
   59.2274  154.0804   -7.9909 C   0  0  0  0  0  0  0  0  0  0  0  0
   56.3656  159.6395   -3.3572 C   0  0  0  0  0  0  0  0  0  0  0  0
   56.9755  158.8566   -4.3240 C   0  0  0  0  0  0  0  0  0  0  0  0
   58.0623  154.9408   -6.4878 C   0  0  0  0  0  0  0  0  0  0  0  0
   54.9587  159.5047   -3.0055 C   0  0  0  0  0  0  0  0  0  0  0  0
   57.4732  155.8372   -5.4264 C   0  0  0  0  0  0  0  0  0  0  0  0
   56.7202  157.0319   -6.0066 C   0  0  0  0  0  0  0  0  0  0  0  0
   58.2793  158.9565   -4.6673 N   0  0  0  0  0  0  0  0  0  0  0  0
   59.1403  155.1868   -7.1954 N   0  0  0  0  0  0  0  0  0  0  0  0
   57.5390  153.7399   -6.8536 N   0  0  0  0  0  0  0  0  0  0  0  0
   58.2709  153.1653   -7.8202 N   0  0  0  0  0  0  0  0  0  0  0  0
   54.0411  160.2806   -3.7058 N   0  0  0  0  0  0  0  0  0  0  0  0
   56.1892  157.8872   -4.9964 N   0  0  0  0  0  0  0  0  0  0  0  0
   54.5895  158.7372   -2.1009 O   0  0  0  0  0  0  0  0  0  0  0  0
   59.1151  161.4491   -2.5257 H   0  0  0  0  0  0  0  0  0  0  0  0
   56.7137  161.2253   -1.9337 H   0  0  0  0  0  0  0  0  0  0  0  0
   60.0476  159.9515   -4.2977 H   0  0  0  0  0  0  0  0  0  0  0  0
   60.0213  153.9522   -8.7149 H   0  0  0  0  0  0  0  0  0  0  0  0
   58.2871  156.1983   -4.7850 H   0  0  0  0  0  0  0  0  0  0  0  0
   56.8109  155.2540   -4.7739 H   0  0  0  0  0  0  0  0  0  0  0  0
   57.3982  157.6417   -6.6121 H   0  0  0  0  0  0  0  0  0  0  0  0
   55.8870  156.7144   -6.6421 H   0  0  0  0  0  0  0  0  0  0  0  0
   58.0417  152.2628   -8.2273 H   0  0  0  0  0  0  0  0  0  0  0  0
   54.3723  160.9085   -4.4302 H   0  0  0  0  0  0  0  0  0  0  0  0
   53.0470  160.2316   -3.5071 H   0  0  0  0  0  0  0  0  0  0  0  0
   55.2283  157.8274   -4.7291 H   0  0  0  0  0  0  0  0  0  0  0  0
  1  2  1  0  0  0  0
  1  3  2  0  0  0  0
  2  5  2  0  0  0  0
  3 11  1  0  0  0  0
  4 12  2  0  0  0  0
  4 14  1  0  0  0  0
  5  6  1  0  0  0  0
  5  8  1  0  0  0  0
  6 11  2  0  0  0  0
  6 16  1  0  0  0  0
  7  9  1  0  0  0  0
  7 12  1  0  0  0  0
  7 13  2  0  0  0  0
  8 15  1  0  0  0  0
  8 17  2  0  0  0  0
  9 10  1  0  0  0  0
 10 16  1  0  0  0  0
 13 14  1  0  0  0  0
  1 18  1  0  0  0  0
  2 19  1  0  0  0  0
  3 20  1  0  0  0  0
  4 21  1  0  0  0  0
  9 22  1  0  0  0  0
  9 23  1  0  0  0  0
 10 24  1  0  0  0  0
 10 25  1  0  0  0  0
 14 26  1  0  0  0  0
 15 27  1  0  0  0  0
 15 28  1  0  0  0  0
 16 29  1  0  0  0  0
M  END
> <FRED Chemgauss4 score>
-7.606503

$$$$
C77257676	P120527372
  -OEChem-05122015073D

 62 63  0     1  0  0  0  0  0999 V2000
   56.9997  154.2970   -6.8130 C   0  0  0  0  0  0  0  0  0  0  0  0
   55.5528  154.1903   -6.3516 C   0  0  0  0  0  0  0  0  0  0  0  0
   54.7848  157.4865   -4.5923 C   0  0  0  0  0  0  0  0  0  0  0  0
   55.8154  156.3939   -4.9818 C   0  0  1  0  0  0  0  0  0  0  0  0
   57.7199  155.6022   -6.4536 C   0  0  2  0  0  0  0  0  0  0  0  0
   53.9419  157.0705   -3.3907 C   0  0  1  0  0  0  0  0  0  0  0  0
   53.1247  155.7984   -3.6597 C   0  0  1  0  0  0  0  0  0  0  0  0
   55.1887  154.9288   -5.0336 C   0  0  1  0  0  0  0  0  0  0  0  0
   56.7506  156.7996   -6.1919 C   0  0  1  0  0  0  0  0  0  0  0  0
   53.6103  154.9676   -4.8793 C   0  0  1  0  0  0  0  0  0  0  0  0
   58.8295  155.8541   -7.4859 C   0  0  0  0  0  0  0  0  0  0  0  0
   55.8234  154.1004   -3.8791 C   0  0  0  0  0  0  0  0  0  0  0  0
   55.9628  157.2154   -7.4520 C   0  0  0  0  0  0  0  0  0  0  0  0
   52.9476  153.5749   -4.8696 C   0  0  0  0  0  0  0  0  0  0  0  0
   59.8879  159.6752   -5.2680 C   0  0  0  0  0  0  0  0  0  0  0  0
   57.5922  158.0417   -5.7840 C   0  0  0  0  0  0  0  0  0  0  0  0
   58.4171  157.7262   -4.5504 C   0  0  0  0  0  0  0  0  0  0  0  0
   58.3797  159.8654   -3.2321 C   0  0  0  0  0  0  0  0  0  0  0  0
   59.1417  161.0084   -2.5711 C   0  0  0  0  0  0  0  0  0  0  0  0
   59.2629  158.9314   -4.0840 C   0  0  2  0  0  0  0  0  0  0  0  0
   54.8163  156.9104   -2.2738 O   0  0  0  0  0  0  0  0  0  0  0  0
   53.0406  155.0020   -2.4816 O   0  0  0  0  0  0  0  0  0  0  0  0
   53.0915  155.6267   -6.0565 O   0  0  0  0  0  0  0  0  0  0  0  0
   60.1182  160.4580   -1.6952 O   0  0  0  0  0  0  0  0  0  0  0  0
   57.5560  153.4406   -6.3550 H   0  0  0  0  0  0  0  0  0  0  0  0
   57.0968  154.0930   -7.9064 H   0  0  0  0  0  0  0  0  0  0  0  0
   54.8985  154.5053   -7.1745 H   0  0  0  0  0  0  0  0  0  0  0  0
   55.3416  153.1146   -6.2349 H   0  0  0  0  0  0  0  0  0  0  0  0
   55.3140  158.4026   -4.3493 H   0  0  0  0  0  0  0  0  0  0  0  0
   54.1343  157.7428   -5.4155 H   0  0  0  0  0  0  0  0  0  0  0  0
   56.5183  156.3589   -4.1521 H   0  0  0  0  0  0  0  0  0  0  0  0
   58.2584  155.4094   -5.4950 H   0  0  0  0  0  0  0  0  0  0  0  0
   53.2525  157.8838   -3.1204 H   0  0  0  0  0  0  0  0  0  0  0  0
   52.0686  156.1332   -3.8509 H   0  0  0  0  0  0  0  0  0  0  0  0
   58.3811  156.0515   -8.4546 H   0  0  0  0  0  0  0  0  0  0  0  0
   59.4656  154.9770   -7.5510 H   0  0  0  0  0  0  0  0  0  0  0  0
   59.4204  156.7107   -7.1767 H   0  0  0  0  0  0  0  0  0  0  0  0
   55.5862  154.5907   -2.9506 H   0  0  0  0  0  0  0  0  0  0  0  0
   56.8875  154.0713   -4.0388 H   0  0  0  0  0  0  0  0  0  0  0  0
   55.4013  153.1106   -3.9112 H   0  0  0  0  0  0  0  0  0  0  0  0
   56.6622  157.4790   -8.2373 H   0  0  0  0  0  0  0  0  0  0  0  0
   55.3380  158.0691   -7.2147 H   0  0  0  0  0  0  0  0  0  0  0  0
   55.3442  156.3854   -7.7742 H   0  0  0  0  0  0  0  0  0  0  0  0
   53.2993  153.0143   -5.7260 H   0  0  0  0  0  0  0  0  0  0  0  0
   51.8736  153.6983   -4.9218 H   0  0  0  0  0  0  0  0  0  0  0  0
   53.2191  153.0648   -3.9543 H   0  0  0  0  0  0  0  0  0  0  0  0
   59.1168  160.0729   -5.9360 H   0  0  0  0  0  0  0  0  0  0  0  0
   60.5100  160.5100   -4.9322 H   0  0  0  0  0  0  0  0  0  0  0  0
   60.5402  159.0204   -5.8531 H   0  0  0  0  0  0  0  0  0  0  0  0
   58.2203  158.2943   -6.6304 H   0  0  0  0  0  0  0  0  0  0  0  0
   56.8878  158.8459   -5.6103 H   0  0  0  0  0  0  0  0  0  0  0  0
   59.0898  156.8872   -4.7709 H   0  0  0  0  0  0  0  0  0  0  0  0
   57.7615  157.3959   -3.7345 H   0  0  0  0  0  0  0  0  0  0  0  0
   57.5653  160.2792   -3.8413 H   0  0  0  0  0  0  0  0  0  0  0  0
   57.8845  159.2833   -2.4433 H   0  0  0  0  0  0  0  0  0  0  0  0
   58.4783  161.6441   -1.9784 H   0  0  0  0  0  0  0  0  0  0  0  0
   59.6539  161.6209   -3.3198 H   0  0  0  0  0  0  0  0  0  0  0  0
   60.0753  158.5549   -3.4488 H   0  0  0  0  0  0  0  0  0  0  0  0
   55.2403  157.7702   -2.1330 H   0  0  0  0  0  0  0  0  0  0  0  0
   52.6053  155.5482   -1.8086 H   0  0  0  0  0  0  0  0  0  0  0  0
   52.1281  155.6207   -5.9652 H   0  0  0  0  0  0  0  0  0  0  0  0
   60.5845  161.2072   -1.2914 H   0  0  0  0  0  0  0  0  0  0  0  0
  1  2  1  0  0  0  0
  1  5  1  0  0  0  0
  2  8  1  0  0  0  0
  3  4  1  0  0  0  0
  3  6  1  0  0  0  0
  4  8  1  0  0  0  0
  4  9  1  0  0  0  0
  5  9  1  0  0  0  0
  5 11  1  0  0  0  0
  6  7  1  0  0  0  0
  6 21  1  0  0  0  0
  7 10  1  0  0  0  0
  7 22  1  0  0  0  0
  8 10  1  0  0  0  0
  8 12  1  0  0  0  0
  9 13  1  0  0  0  0
  9 16  1  0  0  0  0
 10 14  1  0  0  0  0
 10 23  1  0  0  0  0
 15 20  1  0  0  0  0
 16 17  1  0  0  0  0
 17 20  1  0  0  0  0
 18 19  1  0  0  0  0
 18 20  1  0  0  0  0
 19 24  1  0  0  0  0
  1 25  1  0  0  0  0
  1 26  1  0  0  0  0
  2 27  1  0  0  0  0
  2 28  1  0  0  0  0
  3 29  1  0  0  0  0
  3 30  1  0  0  0  0
  4 31  1  0  0  0  0
  5 32  1  0  0  0  0
  6 33  1  0  0  0  0
  7 34  1  0  0  0  0
 11 35  1  0  0  0  0
 11 36  1  0  0  0  0
 11 37  1  0  0  0  0
 12 38  1  0  0  0  0
 12 39  1  0  0  0  0
 12 40  1  0  0  0  0
 13 41  1  0  0  0  0
 13 42  1  0  0  0  0
 13 43  1  0  0  0  0
 14 44  1  0  0  0  0
 14 45  1  0  0  0  0
 14 46  1  0  0  0  0
 15 47  1  0  0  0  0
 15 48  1  0  0  0  0
 15 49  1  0  0  0  0
 16 50  1  0  0  0  0
 16 51  1  0  0  0  0
 17 52  1  0  0  0  0
 17 53  1  0  0  0  0
 18 54  1  0  0  0  0
 18 55  1  0  0  0  0
 19 56  1  0  0  0  0
 19 57  1  0  0  0  0
 20 58  1  0  0  0  0
 21 59  1  0  0  0  0
 22 60  1  0  0  0  0
 23 61  1  0  0  0  0
 24 62  1  0  0  0  0
M  END
> <FRED Chemgauss4 score>
-7.603626

$$$$
L-Asparagine	P10000024
  -OEChem-05122015073D

 17 16  0     1  0  0  0  0  0999 V2000
   55.1735  156.2877   -6.1672 C   0  0  0  0  0  0  0  0  0  0  0  0
   53.8184  155.8869   -3.1373 C   0  0  0  0  0  0  0  0  0  0  0  0
   53.7671  156.5563   -5.6547 C   0  0  0  0  0  0  0  0  0  0  0  0
   53.2899  155.6059   -4.5546 C   0  0  2  0  0  0  0  0  0  0  0  0
   55.5263  157.1392   -7.1928 N   0  0  0  0  0  0  0  0  0  0  0  0
   51.7965  155.5364   -4.6519 N   0  3  0  0  0  0  0  0  0  0  0  0
   53.0300  155.5684   -2.2013 O   0  5  0  0  0  0  0  0  0  0  0  0
   55.9149  155.4166   -5.7222 O   0  0  0  0  0  0  0  0  0  0  0  0
   54.9605  156.4212   -3.0680 O   0  0  0  0  0  0  0  0  0  0  0  0
   53.7394  157.5903   -5.2881 H   0  0  0  0  0  0  0  0  0  0  0  0
   53.0821  156.5054   -6.5112 H   0  0  0  0  0  0  0  0  0  0  0  0
   53.6342  154.5945   -4.8053 H   0  0  0  0  0  0  0  0  0  0  0  0
   54.8643  157.8396   -7.5118 H   0  0  0  0  0  0  0  0  0  0  0  0
   56.4381  157.0757   -7.6330 H   0  0  0  0  0  0  0  0  0  0  0  0
   51.3761  156.3525   -4.2065 H   0  0  0  0  0  0  0  0  0  0  0  0
   51.4525  154.6954   -4.1871 H   0  0  0  0  0  0  0  0  0  0  0  0
   51.5080  155.5117   -5.6305 H   0  0  0  0  0  0  0  0  0  0  0  0
  1  3  1  0  0  0  0
  1  5  1  0  0  0  0
  1  8  2  0  0  0  0
  2  4  1  0  0  0  0
  2  7  1  0  0  0  0
  2  9  2  0  0  0  0
  3  4  1  0  0  0  0
  4  6  1  0  0  0  0
  3 10  1  0  0  0  0
  3 11  1  0  0  0  0
  4 12  1  0  0  0  0
  5 13  1  0  0  0  0
  5 14  1  0  0  0  0
  6 15  1  0  0  0  0
  6 16  1  0  0  0  0
  6 17  1  0  0  0  0
M  CHG  2   6   1   7  -1
M  END
> <FRED Chemgauss4 score>
-7.599627

$$$$
C87666364	P137137159
  -OEChem-05122015073D

 29 30  0     1  0  0  0  0  0999 V2000
   56.1806  153.5094   -6.7280 C   0  0  0  0  0  0  0  0  0  0  0  0
   54.9364  153.8730   -6.3940 C   0  0  0  0  0  0  0  0  0  0  0  0
   56.3051  155.6261   -5.8856 C   0  0  0  0  0  0  0  0  0  0  0  0
   59.2138  155.7064   -7.1087 C   0  0  0  0  0  0  0  0  0  0  0  0
   59.4225  155.1485   -5.7323 C   0  0  0  0  0  0  0  0  0  0  0  0
   58.4494  154.4875   -6.6697 C   0  0  0  0  0  0  0  0  0  0  0  0
   53.8036  155.8676   -5.4138 C   0  0  0  0  0  0  0  0  0  0  0  0
   54.1699  156.0094   -2.8961 C   0  0  0  0  0  0  0  0  0  0  0  0
   53.3365  155.4125   -4.0304 C   0  0  1  0  0  0  0  0  0  0  0  0
   57.0447  154.5412   -6.4379 N   0  0  0  0  0  0  0  0  0  0  0  0
   54.9629  155.1492   -5.8787 N   0  0  0  0  0  0  0  0  0  0  0  0
   54.0920  157.4533   -2.9323 N   0  0  0  0  0  0  0  0  0  0  0  0
   56.7243  156.7097   -5.5076 O   0  0  0  0  0  0  0  0  0  0  0  0
   51.9715  155.7874   -3.8452 O   0  0  0  0  0  0  0  0  0  0  0  0
   56.5238  152.5817   -7.1566 H   0  0  0  0  0  0  0  0  0  0  0  0
   54.0187  153.3150   -6.4837 H   0  0  0  0  0  0  0  0  0  0  0  0
   58.6818  156.6459   -7.1958 H   0  0  0  0  0  0  0  0  0  0  0  0
   60.0065  155.5701   -7.8340 H   0  0  0  0  0  0  0  0  0  0  0  0
   60.3555  154.6367   -5.5312 H   0  0  0  0  0  0  0  0  0  0  0  0
   59.0307  155.7136   -4.8955 H   0  0  0  0  0  0  0  0  0  0  0  0
   58.7560  153.5404   -7.1003 H   0  0  0  0  0  0  0  0  0  0  0  0
   53.0123  155.7289   -6.1572 H   0  0  0  0  0  0  0  0  0  0  0  0
   54.0814  156.9263   -5.3954 H   0  0  0  0  0  0  0  0  0  0  0  0
   55.2225  155.7216   -2.9862 H   0  0  0  0  0  0  0  0  0  0  0  0
   53.7977  155.6657   -1.9255 H   0  0  0  0  0  0  0  0  0  0  0  0
   53.3805  154.3173   -3.9869 H   0  0  0  0  0  0  0  0  0  0  0  0
   54.0866  157.9145   -3.8236 H   0  0  0  0  0  0  0  0  0  0  0  0
   54.2497  157.9668   -2.0845 H   0  0  0  0  0  0  0  0  0  0  0  0
   51.4685  155.3446   -4.5453 H   0  0  0  0  0  0  0  0  0  0  0  0
  1  2  2  0  0  0  0
  1 10  1  0  0  0  0
  2 11  1  0  0  0  0
  3 10  1  0  0  0  0
  3 11  1  0  0  0  0
  3 13  2  0  0  0  0
  4  5  1  0  0  0  0
  4  6  1  0  0  0  0
  5  6  1  0  0  0  0
  6 10  1  0  0  0  0
  7  9  1  0  0  0  0
  7 11  1  0  0  0  0
  8  9  1  0  0  0  0
  8 12  1  0  0  0  0
  9 14  1  0  0  0  0
  1 15  1  0  0  0  0
  2 16  1  0  0  0  0
  4 17  1  0  0  0  0
  4 18  1  0  0  0  0
  5 19  1  0  0  0  0
  5 20  1  0  0  0  0
  6 21  1  0  0  0  0
  7 22  1  0  0  0  0
  7 23  1  0  0  0  0
  8 24  1  0  0  0  0
  8 25  1  0  0  0  0
  9 26  1  0  0  0  0
 12 27  1  0  0  0  0
 12 28  1  0  0  0  0
 14 29  1  0  0  0  0
M  END
> <FRED Chemgauss4 score>
-7.597778

$$$$
C70521692	P108791441
  -OEChem-05122015073D

 45 46  0     1  0  0  0  0  0999 V2000
   59.5059  159.5625   -6.1159 C   0  0  0  0  0  0  0  0  0  0  0  0
   59.4033  160.9240   -4.1227 C   0  0  0  0  0  0  0  0  0  0  0  0
   60.4460  160.4353   -6.6637 C   0  0  0  0  0  0  0  0  0  0  0  0
   60.3434  161.7968   -4.6705 C   0  0  0  0  0  0  0  0  0  0  0  0
   58.9845  159.8069   -4.8454 C   0  0  0  0  0  0  0  0  0  0  0  0
   60.8647  161.5525   -5.9410 C   0  0  0  0  0  0  0  0  0  0  0  0
   58.0170  157.5101   -4.6206 C   0  0  0  0  0  0  0  0  0  0  0  0
   56.7987  159.4449   -3.7262 C   0  0  0  0  0  0  0  0  0  0  0  0
   56.8631  157.2336   -5.5881 C   0  0  0  0  0  0  0  0  0  0  0  0
   55.6480  159.1377   -4.6952 C   0  0  0  0  0  0  0  0  0  0  0  0
   54.7417  154.9947   -6.6649 C   0  0  0  0  0  0  0  0  0  0  0  0
   62.1657  163.5264   -5.6824 C   0  0  0  0  0  0  0  0  0  0  0  0
   54.4823  157.4236   -5.9300 C   0  0  0  0  0  0  0  0  0  0  0  0
   53.7125  155.5026   -4.3857 C   0  0  0  0  0  0  0  0  0  0  0  0
   53.9168  155.9891   -5.8369 C   0  0  2  0  0  0  0  0  0  0  0  0
   58.0483  158.9377   -4.2998 N   0  0  0  0  0  0  0  0  0  0  0  0
   55.5891  157.7017   -5.0159 N   0  0  0  0  0  0  0  0  0  0  0  0
   52.9913  156.4274   -3.5215 N   0  0  0  0  0  0  0  0  0  0  0  0
   52.6003  156.0246   -6.4174 O   0  0  0  0  0  0  0  0  0  0  0  0
   61.7820  162.4042   -6.4755 O   0  0  0  0  0  0  0  0  0  0  0  0
   59.1867  158.6950   -6.6877 H   0  0  0  0  0  0  0  0  0  0  0  0
   59.0035  161.1240   -3.1318 H   0  0  0  0  0  0  0  0  0  0  0  0
   60.8485  160.2397   -7.6538 H   0  0  0  0  0  0  0  0  0  0  0  0
   60.6657  162.6655   -4.1027 H   0  0  0  0  0  0  0  0  0  0  0  0
   57.8667  156.9199   -3.7139 H   0  0  0  0  0  0  0  0  0  0  0  0
   58.9645  157.2079   -5.0745 H   0  0  0  0  0  0  0  0  0  0  0  0
   56.8703  160.5213   -3.5648 H   0  0  0  0  0  0  0  0  0  0  0  0
   56.5933  158.9612   -2.7714 H   0  0  0  0  0  0  0  0  0  0  0  0
   57.0676  157.7587   -6.5252 H   0  0  0  0  0  0  0  0  0  0  0  0
   56.8162  156.1620   -5.8090 H   0  0  0  0  0  0  0  0  0  0  0  0
   54.6992  159.4743   -4.2560 H   0  0  0  0  0  0  0  0  0  0  0  0
   55.8084  159.7203   -5.6105 H   0  0  0  0  0  0  0  0  0  0  0  0
   54.3241  153.9841   -6.5853 H   0  0  0  0  0  0  0  0  0  0  0  0
   55.7896  154.9542   -6.3536 H   0  0  0  0  0  0  0  0  0  0  0  0
   54.7079  155.2571   -7.7286 H   0  0  0  0  0  0  0  0  0  0  0  0
   62.9019  164.1233   -6.2263 H   0  0  0  0  0  0  0  0  0  0  0  0
   62.5899  163.1779   -4.7374 H   0  0  0  0  0  0  0  0  0  0  0  0
   61.2827  164.1371   -5.4799 H   0  0  0  0  0  0  0  0  0  0  0  0
   54.8043  157.6223   -6.9600 H   0  0  0  0  0  0  0  0  0  0  0  0
   53.6801  158.1449   -5.7308 H   0  0  0  0  0  0  0  0  0  0  0  0
   53.1836  154.5409   -4.3947 H   0  0  0  0  0  0  0  0  0  0  0  0
   54.6909  155.2912   -3.9363 H   0  0  0  0  0  0  0  0  0  0  0  0
   53.1627  156.3869   -2.5385 H   0  0  0  0  0  0  0  0  0  0  0  0
   52.2127  156.9221   -3.9041 H   0  0  0  0  0  0  0  0  0  0  0  0
   52.0961  156.6536   -5.8854 H   0  0  0  0  0  0  0  0  0  0  0  0
  1  3  2  0  0  0  0
  1  5  1  0  0  0  0
  2  4  1  0  0  0  0
  2  5  2  0  0  0  0
  3  6  1  0  0  0  0
  4  6  2  0  0  0  0
  5 16  1  0  0  0  0
  6 20  1  0  0  0  0
  7  9  1  0  0  0  0
  7 16  1  0  0  0  0
  8 10  1  0  0  0  0
  8 16  1  0  0  0  0
  9 17  1  0  0  0  0
 10 17  1  0  0  0  0
 11 15  1  0  0  0  0
 12 20  1  0  0  0  0
 13 15  1  0  0  0  0
 13 17  1  0  0  0  0
 14 15  1  0  0  0  0
 14 18  1  0  0  0  0
 15 19  1  0  0  0  0
  1 21  1  0  0  0  0
  2 22  1  0  0  0  0
  3 23  1  0  0  0  0
  4 24  1  0  0  0  0
  7 25  1  0  0  0  0
  7 26  1  0  0  0  0
  8 27  1  0  0  0  0
  8 28  1  0  0  0  0
  9 29  1  0  0  0  0
  9 30  1  0  0  0  0
 10 31  1  0  0  0  0
 10 32  1  0  0  0  0
 11 33  1  0  0  0  0
 11 34  1  0  0  0  0
 11 35  1  0  0  0  0
 12 36  1  0  0  0  0
 12 37  1  0  0  0  0
 12 38  1  0  0  0  0
 13 39  1  0  0  0  0
 13 40  1  0  0  0  0
 14 41  1  0  0  0  0
 14 42  1  0  0  0  0
 18 43  1  0  0  0  0
 18 44  1  0  0  0  0
 19 45  1  0  0  0  0
M  END
> <FRED Chemgauss4 score>
-7.595956

$$$$
C86660203	P135651933
  -OEChem-05122015073D

 28 28  0     1  0  0  0  0  0999 V2000
   59.3181  156.8656   -7.9943 C   0  0  0  0  0  0  0  0  0  0  0  0
   60.1350  155.7215   -7.4172 C   0  0  0  0  0  0  0  0  0  0  0  0
   58.0093  156.8758   -7.1991 C   0  0  0  0  0  0  0  0  0  0  0  0
   59.0759  154.6985   -7.0315 C   0  0  2  0  0  0  0  0  0  0  0  0
   57.9906  155.5676   -6.3985 C   0  0  2  0  0  0  0  0  0  0  0  0
   53.5248  155.9095   -3.5761 C   0  0  0  0  0  0  0  0  0  0  0  0
   55.5559  155.7646   -5.1530 C   0  0  0  0  0  0  0  0  0  0  0  0
   54.0857  155.4138   -4.9069 C   0  0  2  0  0  0  0  0  0  0  0  0
   59.5885  153.7616   -6.1021 O   0  0  0  0  0  0  0  0  0  0  0  0
   54.3041  155.3581   -2.5181 O   0  0  0  0  0  0  0  0  0  0  0  0
   53.2931  155.9234   -5.9803 O   0  0  0  0  0  0  0  0  0  0  0  0
   56.3626  154.7592   -6.4196 S   0  0  0  0  0  0  0  0  0  0  0  0
   59.8467  157.8217   -7.9327 H   0  0  0  0  0  0  0  0  0  0  0  0
   59.1025  156.6725   -9.0522 H   0  0  0  0  0  0  0  0  0  0  0  0
   60.8574  155.3181   -8.1334 H   0  0  0  0  0  0  0  0  0  0  0  0
   60.7013  156.0489   -6.5364 H   0  0  0  0  0  0  0  0  0  0  0  0
   57.9862  157.7322   -6.5151 H   0  0  0  0  0  0  0  0  0  0  0  0
   57.1617  156.9877   -7.8847 H   0  0  0  0  0  0  0  0  0  0  0  0
   58.7220  154.1673   -7.9234 H   0  0  0  0  0  0  0  0  0  0  0  0
   58.2344  155.7714   -5.3462 H   0  0  0  0  0  0  0  0  0  0  0  0
   53.5817  156.9987   -3.4890 H   0  0  0  0  0  0  0  0  0  0  0  0
   52.4897  155.5815   -3.4398 H   0  0  0  0  0  0  0  0  0  0  0  0
   56.1250  155.6477   -4.2250 H   0  0  0  0  0  0  0  0  0  0  0  0
   55.6390  156.8083   -5.4731 H   0  0  0  0  0  0  0  0  0  0  0  0
   53.9799  154.3234   -4.9517 H   0  0  0  0  0  0  0  0  0  0  0  0
   60.3393  153.3155   -6.5302 H   0  0  0  0  0  0  0  0  0  0  0  0
   53.9227  155.6915   -1.6911 H   0  0  0  0  0  0  0  0  0  0  0  0
   53.6876  155.5824   -6.7969 H   0  0  0  0  0  0  0  0  0  0  0  0
  1  2  1  0  0  0  0
  1  3  1  0  0  0  0
  2  4  1  0  0  0  0
  3  5  1  0  0  0  0
  4  5  1  0  0  0  0
  4  9  1  0  0  0  0
  5 12  1  0  0  0  0
  6  8  1  0  0  0  0
  6 10  1  0  0  0  0
  7  8  1  0  0  0  0
  7 12  1  0  0  0  0
  8 11  1  0  0  0  0
  1 13  1  0  0  0  0
  1 14  1  0  0  0  0
  2 15  1  0  0  0  0
  2 16  1  0  0  0  0
  3 17  1  0  0  0  0
  3 18  1  0  0  0  0
  4 19  1  0  0  0  0
  5 20  1  0  0  0  0
  6 21  1  0  0  0  0
  6 22  1  0  0  0  0
  7 23  1  0  0  0  0
  7 24  1  0  0  0  0
  8 25  1  0  0  0  0
  9 26  1  0  0  0  0
 10 27  1  0  0  0  0
 11 28  1  0  0  0  0
M  END
> <FRED Chemgauss4 score>
-7.591600

$$$$
C97236316	P153968216
  -OEChem-05122015073D

 38 40  0     1  0  0  0  0  0999 V2000
   55.1546  155.6277   -4.8256 C   0  0  0  0  0  0  0  0  0  0  0  0
   59.2270  159.6520   -5.5089 C   0  0  0  0  0  0  0  0  0  0  0  0
   54.3519  154.9912   -5.7912 C   0  0  0  0  0  0  0  0  0  0  0  0
   59.6822  160.2818   -6.6469 C   0  0  0  0  0  0  0  0  0  0  0  0
   59.5737  160.3624   -4.3147 C   0  0  0  0  0  0  0  0  0  0  0  0
   54.2826  156.4259   -4.1263 C   0  0  0  0  0  0  0  0  0  0  0  0
   60.3191  161.4901   -4.6136 C   0  0  0  0  0  0  0  0  0  0  0  0
   54.5458  157.3386   -2.9840 C   0  0  0  0  0  0  0  0  0  0  0  0
   60.8675  162.4551   -3.6088 C   0  0  0  0  0  0  0  0  0  0  0  0
   60.8597  161.8323   -2.2052 C   0  0  0  0  0  0  0  0  0  0  0  0
   59.5251  161.1324   -1.9132 C   0  0  0  0  0  0  0  0  0  0  0  0
   59.2729  159.9653   -2.8929 C   0  0  1  0  0  0  0  0  0  0  0  0
   56.2712  158.2249   -1.4369 C   0  0  0  0  0  0  0  0  0  0  0  0
   57.7027  158.7137   -1.5810 C   0  0  0  0  0  0  0  0  0  0  0  0
   53.0686  155.3536   -5.7150 N   0  0  0  0  0  0  0  0  0  0  0  0
   53.0583  156.2264   -4.6931 N   0  0  0  0  0  0  0  0  0  0  0  0
   55.8630  157.4061   -2.5467 N   0  0  0  0  0  0  0  0  0  0  0  0
   57.8823  159.5303   -2.7705 N   0  0  0  0  0  0  0  0  0  0  0  0
   53.6106  157.9563   -2.4817 O   0  0  0  0  0  0  0  0  0  0  0  0
   60.5455  161.7134   -6.2865 S   0  0  0  0  0  0  0  0  0  0  0  0
   56.2175  155.5209   -4.6640 H   0  0  0  0  0  0  0  0  0  0  0  0
   58.6653  158.7257   -5.5295 H   0  0  0  0  0  0  0  0  0  0  0  0
   54.6489  154.2781   -6.5467 H   0  0  0  0  0  0  0  0  0  0  0  0
   59.5499  159.9664   -7.6722 H   0  0  0  0  0  0  0  0  0  0  0  0
   61.8976  162.7043   -3.8861 H   0  0  0  0  0  0  0  0  0  0  0  0
   60.2896  163.3842   -3.5981 H   0  0  0  0  0  0  0  0  0  0  0  0
   61.6821  161.1144   -2.1237 H   0  0  0  0  0  0  0  0  0  0  0  0
   61.0447  162.6095   -1.4560 H   0  0  0  0  0  0  0  0  0  0  0  0
   59.5471  160.7438   -0.8899 H   0  0  0  0  0  0  0  0  0  0  0  0
   58.7062  161.8550   -1.9621 H   0  0  0  0  0  0  0  0  0  0  0  0
   59.9176  159.1272   -2.5962 H   0  0  0  0  0  0  0  0  0  0  0  0
   55.5682  159.0614   -1.3717 H   0  0  0  0  0  0  0  0  0  0  0  0
   56.1715  157.6147   -0.5339 H   0  0  0  0  0  0  0  0  0  0  0  0
   57.9801  159.3322   -0.7219 H   0  0  0  0  0  0  0  0  0  0  0  0
   58.4051  157.8766   -1.6474 H   0  0  0  0  0  0  0  0  0  0  0  0
   52.1759  156.6512   -4.4357 H   0  0  0  0  0  0  0  0  0  0  0  0
   56.5703  156.8136   -2.9769 H   0  0  0  0  0  0  0  0  0  0  0  0
   57.2854  160.3519   -2.7128 H   0  0  0  0  0  0  0  0  0  0  0  0
  1  3  1  0  0  0  0
  1  6  2  0  0  0  0
  2  4  2  0  0  0  0
  2  5  1  0  0  0  0
  3 15  2  0  0  0  0
  4 20  1  0  0  0  0
  5  7  2  0  0  0  0
  5 12  1  0  0  0  0
  6  8  1  0  0  0  0
  6 16  1  0  0  0  0
  7  9  1  0  0  0  0
  7 20  1  0  0  0  0
  8 17  1  0  0  0  0
  8 19  2  0  0  0  0
  9 10  1  0  0  0  0
 10 11  1  0  0  0  0
 11 12  1  0  0  0  0
 12 18  1  0  0  0  0
 13 14  1  0  0  0  0
 13 17  1  0  0  0  0
 14 18  1  0  0  0  0
 15 16  1  0  0  0  0
  1 21  1  0  0  0  0
  2 22  1  0  0  0  0
  3 23  1  0  0  0  0
  4 24  1  0  0  0  0
  9 25  1  0  0  0  0
  9 26  1  0  0  0  0
 10 27  1  0  0  0  0
 10 28  1  0  0  0  0
 11 29  1  0  0  0  0
 11 30  1  0  0  0  0
 12 31  1  0  0  0  0
 13 32  1  0  0  0  0
 13 33  1  0  0  0  0
 14 34  1  0  0  0  0
 14 35  1  0  0  0  0
 16 36  1  0  0  0  0
 17 37  1  0  0  0  0
 18 38  1  0  0  0  0
M  END
> <FRED Chemgauss4 score>
-7.576506

$$$$
C93829841	P147036827
  -OEChem-05122015073D

 51 53  0     1  0  0  0  0  0999 V2000
   53.9308  157.5457   -4.1354 C   0  0  0  0  0  0  0  0  0  0  0  0
   54.2541  165.9874   -3.7570 C   0  0  0  0  0  0  0  0  0  0  0  0
   54.0112  164.5756   -4.2411 C   0  0  0  0  0  0  0  0  0  0  0  0
   56.5586  159.0830   -2.6058 C   0  0  0  0  0  0  0  0  0  0  0  0
   56.2484  157.7041   -3.2037 C   0  0  0  0  0  0  0  0  0  0  0  0
   57.4845  163.0158   -2.0277 C   0  0  0  0  0  0  0  0  0  0  0  0
   55.4314  159.4730   -4.6731 C   0  0  0  0  0  0  0  0  0  0  0  0
   54.8798  165.7956   -2.3856 C   0  0  0  0  0  0  0  0  0  0  0  0
   56.7295  164.3288   -1.7992 C   0  0  0  0  0  0  0  0  0  0  0  0
   56.6381  161.7447   -1.9521 C   0  0  0  0  0  0  0  0  0  0  0  0
   54.8648  162.3116   -3.5621 C   0  0  0  0  0  0  0  0  0  0  0  0
   55.5610  160.0370   -3.2587 C   0  0  2  0  0  0  0  0  0  0  0  0
   55.2042  163.8059   -3.6728 C   0  0  2  0  0  0  0  0  0  0  0  0
   55.3487  157.9623   -4.4258 C   0  0  2  0  0  0  0  0  0  0  0  0
   56.0447  154.9489   -6.5059 C   0  0  0  0  0  0  0  0  0  0  0  0
   55.6541  155.7532   -5.3129 C   0  0  0  0  0  0  0  0  0  0  0  0
   55.3846  164.4164   -2.3549 N   0  0  2  0  0  0  0  0  0  0  0  0
   56.0007  161.4365   -3.2405 N   0  0  2  0  0  0  0  0  0  0  0  0
   53.0672  157.7479   -5.1859 N   0  0  0  0  0  0  0  0  0  0  0  0
   55.7414  157.1806   -5.5899 N   0  0  0  0  0  0  0  0  0  0  0  0
   53.6020  157.0562   -3.0576 O   0  0  0  0  0  0  0  0  0  0  0  0
   54.9339  166.5266   -4.4200 H   0  0  0  0  0  0  0  0  0  0  0  0
   53.3146  166.5411   -3.6981 H   0  0  0  0  0  0  0  0  0  0  0  0
   53.0673  164.1962   -3.8376 H   0  0  0  0  0  0  0  0  0  0  0  0
   53.9677  164.5153   -5.3301 H   0  0  0  0  0  0  0  0  0  0  0  0
   56.4779  159.0840   -1.5138 H   0  0  0  0  0  0  0  0  0  0  0  0
   57.5903  159.3599   -2.8590 H   0  0  0  0  0  0  0  0  0  0  0  0
   57.1910  157.2145   -3.4777 H   0  0  0  0  0  0  0  0  0  0  0  0
   55.7642  157.0608   -2.4600 H   0  0  0  0  0  0  0  0  0  0  0  0
   57.9451  163.0537   -3.0211 H   0  0  0  0  0  0  0  0  0  0  0  0
   58.3160  162.9455   -1.3169 H   0  0  0  0  0  0  0  0  0  0  0  0
   54.5543  159.8766   -5.1922 H   0  0  0  0  0  0  0  0  0  0  0  0
   56.3206  159.7246   -5.2675 H   0  0  0  0  0  0  0  0  0  0  0  0
   55.7007  166.5255   -2.2424 H   0  0  0  0  0  0  0  0  0  0  0  0
   54.1453  165.9735   -1.5790 H   0  0  0  0  0  0  0  0  0  0  0  0
   56.6520  164.4606   -0.6863 H   0  0  0  0  0  0  0  0  0  0  0  0
   57.3626  165.2067   -2.1175 H   0  0  0  0  0  0  0  0  0  0  0  0
   57.2802  160.9280   -1.7023 H   0  0  0  0  0  0  0  0  0  0  0  0
   55.9061  161.8912   -1.1889 H   0  0  0  0  0  0  0  0  0  0  0  0
   54.0060  162.1316   -2.8596 H   0  0  0  0  0  0  0  0  0  0  0  0
   54.4410  162.0113   -4.5547 H   0  0  0  0  0  0  0  0  0  0  0  0
   54.5906  159.9588   -2.7413 H   0  0  0  0  0  0  0  0  0  0  0  0
   56.0660  163.9429   -4.3105 H   0  0  0  0  0  0  0  0  0  0  0  0
   55.3848  155.1620   -7.3539 H   0  0  0  0  0  0  0  0  0  0  0  0
   57.0811  155.1560   -6.7939 H   0  0  0  0  0  0  0  0  0  0  0  0
   55.9643  153.8798   -6.2755 H   0  0  0  0  0  0  0  0  0  0  0  0
   56.3170  155.5355   -4.4700 H   0  0  0  0  0  0  0  0  0  0  0  0
   54.6241  155.5334   -5.0171 H   0  0  0  0  0  0  0  0  0  0  0  0
   53.4307  158.1464   -6.0453 H   0  0  0  0  0  0  0  0  0  0  0  0
   52.0808  157.5146   -5.1362 H   0  0  0  0  0  0  0  0  0  0  0  0
   56.7008  157.4151   -5.8438 H   0  0  0  0  0  0  0  0  0  0  0  0
  1 14  1  0  0  0  0
  1 19  1  0  0  0  0
  1 21  2  0  0  0  0
  2  3  1  0  0  0  0
  2  8  1  0  0  0  0
  3 13  1  0  0  0  0
  4  5  1  0  0  0  0
  4 12  1  0  0  0  0
  5 14  1  0  0  0  0
  6  9  1  0  0  0  0
  6 10  1  0  0  0  0
  7 12  1  0  0  0  0
  7 14  1  0  0  0  0
  8 17  1  0  0  0  0
  9 17  1  0  0  0  0
 10 18  1  0  0  0  0
 11 13  1  0  0  0  0
 11 18  1  0  0  0  0
 12 18  1  0  0  0  0
 13 17  1  0  0  0  0
 14 20  1  0  0  0  0
 15 16  1  0  0  0  0
 16 20  1  0  0  0  0
  2 22  1  0  0  0  0
  2 23  1  0  0  0  0
  3 24  1  0  0  0  0
  3 25  1  0  0  0  0
  4 26  1  0  0  0  0
  4 27  1  0  0  0  0
  5 28  1  0  0  0  0
  5 29  1  0  0  0  0
  6 30  1  0  0  0  0
  6 31  1  0  0  0  0
  7 32  1  0  0  0  0
  7 33  1  0  0  0  0
  8 34  1  0  0  0  0
  8 35  1  0  0  0  0
  9 36  1  0  0  0  0
  9 37  1  0  0  0  0
 10 38  1  0  0  0  0
 10 39  1  0  0  0  0
 11 40  1  0  0  0  0
 11 41  1  0  0  0  0
 12 42  1  0  0  0  0
 13 43  1  0  0  0  0
 15 44  1  0  0  0  0
 15 45  1  0  0  0  0
 15 46  1  0  0  0  0
 16 47  1  0  0  0  0
 16 48  1  0  0  0  0
 19 49  1  0  0  0  0
 19 50  1  0  0  0  0
 20 51  1  0  0  0  0
M  END
> <FRED Chemgauss4 score>
-7.571087

$$$$
C97556105	P154592888
  -OEChem-05122015073D

 39 40  0     1  0  0  0  0  0999 V2000
   54.7667  151.7626   -8.3285 C   0  0  0  0  0  0  0  0  0  0  0  0
   54.7762  153.5952   -7.3291 C   0  0  0  0  0  0  0  0  0  0  0  0
   59.0817  157.5945   -5.0647 C   0  0  0  0  0  0  0  0  0  0  0  0
   58.5465  156.2112   -5.4261 C   0  0  0  0  0  0  0  0  0  0  0  0
   58.3199  158.1938   -3.8884 C   0  0  0  0  0  0  0  0  0  0  0  0
   56.3045  156.8845   -4.4873 C   0  0  0  0  0  0  0  0  0  0  0  0
   57.0346  156.2620   -5.6832 C   0  0  2  0  0  0  0  0  0  0  0  0
   56.2419  158.3962   -1.6318 C   0  0  0  0  0  0  0  0  0  0  0  0
   56.4906  154.8667   -5.9807 C   0  0  0  0  0  0  0  0  0  0  0  0
   55.1045  154.9063   -6.6440 C   0  0  2  0  0  0  0  0  0  0  0  0
   55.6077  152.7378   -7.8742 N   0  0  0  0  0  0  0  0  0  0  0  0
   53.4672  151.9627   -8.0989 N   0  0  0  0  0  0  0  0  0  0  0  0
   53.5007  153.1413   -7.4587 N   0  0  0  0  0  0  0  0  0  0  0  0
   56.8637  158.2413   -4.2086 N   0  0  1  0  0  0  0  0  0  0  0  0
   52.9632  155.8126   -6.4002 N   0  0  0  0  0  0  0  0  0  0  0  0
   54.0750  155.2567   -5.6912 N   0  0  0  0  0  0  0  0  0  0  0  0
   54.5226  159.0318   -3.4938 O   0  0  0  0  0  0  0  0  0  0  0  0
   56.5139  160.5378   -3.1040 O   0  0  0  0  0  0  0  0  0  0  0  0
   55.9182  159.2221   -3.1679 S   0  0  0  0  0  0  0  0  0  0  0  0
   55.1117  150.8783   -8.8432 H   0  0  0  0  0  0  0  0  0  0  0  0
   60.1476  157.5266   -4.8204 H   0  0  0  0  0  0  0  0  0  0  0  0
   58.9912  158.2554   -5.9359 H   0  0  0  0  0  0  0  0  0  0  0  0
   59.0680  155.8389   -6.3156 H   0  0  0  0  0  0  0  0  0  0  0  0
   58.7663  155.5117   -4.6095 H   0  0  0  0  0  0  0  0  0  0  0  0
   58.4792  157.6007   -2.9804 H   0  0  0  0  0  0  0  0  0  0  0  0
   58.6870  159.2098   -3.7070 H   0  0  0  0  0  0  0  0  0  0  0  0
   55.2382  156.9785   -4.7236 H   0  0  0  0  0  0  0  0  0  0  0  0
   56.4039  156.2573   -3.5932 H   0  0  0  0  0  0  0  0  0  0  0  0
   56.8582  156.8923   -6.5655 H   0  0  0  0  0  0  0  0  0  0  0  0
   55.6960  158.9133   -0.8411 H   0  0  0  0  0  0  0  0  0  0  0  0
   55.9024  157.3630   -1.7181 H   0  0  0  0  0  0  0  0  0  0  0  0
   57.3156  158.4316   -1.4415 H   0  0  0  0  0  0  0  0  0  0  0  0
   57.2128  154.3408   -6.6161 H   0  0  0  0  0  0  0  0  0  0  0  0
   56.4344  154.3132   -5.0357 H   0  0  0  0  0  0  0  0  0  0  0  0
   55.0977  155.7107   -7.3901 H   0  0  0  0  0  0  0  0  0  0  0  0
   52.6320  153.5612   -7.1489 H   0  0  0  0  0  0  0  0  0  0  0  0
   52.8206  156.7771   -6.1016 H   0  0  0  0  0  0  0  0  0  0  0  0
   53.1886  155.8591   -7.3931 H   0  0  0  0  0  0  0  0  0  0  0  0
   53.7607  154.4217   -5.1908 H   0  0  0  0  0  0  0  0  0  0  0  0
  1 11  1  0  0  0  0
  1 12  2  0  0  0  0
  2 10  1  0  0  0  0
  2 11  2  0  0  0  0
  2 13  1  0  0  0  0
  3  4  1  0  0  0  0
  3  5  1  0  0  0  0
  4  7  1  0  0  0  0
  5 14  1  0  0  0  0
  6  7  1  0  0  0  0
  6 14  1  0  0  0  0
  7  9  1  0  0  0  0
  8 19  1  0  0  0  0
  9 10  1  0  0  0  0
 10 16  1  0  0  0  0
 12 13  1  0  0  0  0
 14 19  1  0  0  0  0
 15 16  1  0  0  0  0
 17 19  2  0  0  0  0
 18 19  2  0  0  0  0
  1 20  1  0  0  0  0
  3 21  1  0  0  0  0
  3 22  1  0  0  0  0
  4 23  1  0  0  0  0
  4 24  1  0  0  0  0
  5 25  1  0  0  0  0
  5 26  1  0  0  0  0
  6 27  1  0  0  0  0
  6 28  1  0  0  0  0
  7 29  1  0  0  0  0
  8 30  1  0  0  0  0
  8 31  1  0  0  0  0
  8 32  1  0  0  0  0
  9 33  1  0  0  0  0
  9 34  1  0  0  0  0
 10 35  1  0  0  0  0
 13 36  1  0  0  0  0
 15 37  1  0  0  0  0
 15 38  1  0  0  0  0
 16 39  1  0  0  0  0
M  END
> <FRED Chemgauss4 score>
-7.566746

$$$$
C83440903	P130531180
  -OEChem-05122015073D

 29 29  0     1  0  0  0  0  0999 V2000
   55.6324  154.2061   -6.1909 C   0  0  0  0  0  0  0  0  0  0  0  0
   54.1644  155.2756   -5.1622 C   0  0  0  0  0  0  0  0  0  0  0  0
   53.7613  157.6269   -4.3251 C   0  0  0  0  0  0  0  0  0  0  0  0
   59.8796  155.9147   -8.9639 C   0  0  0  0  0  0  0  0  0  0  0  0
   56.9899  153.6784   -6.5809 C   0  0  0  0  0  0  0  0  0  0  0  0
   57.9514  154.8122   -6.9378 C   0  0  0  0  0  0  0  0  0  0  0  0
   59.3086  154.2794   -7.3756 C   0  0  0  0  0  0  0  0  0  0  0  0
   53.3741  156.1337   -4.2650 C   0  0  2  0  0  0  0  0  0  0  0  0
   55.4628  155.0817   -5.1569 N   0  0  0  0  0  0  0  0  0  0  0  0
   54.5207  153.8460   -6.8357 N   0  0  0  0  0  0  0  0  0  0  0  0
   53.5965  154.5439   -6.1582 N   0  0  0  0  0  0  0  0  0  0  0  0
   53.4178  155.6904   -2.8738 N   0  0  0  0  0  0  0  0  0  0  0  0
   60.1577  155.3778   -7.6775 O   0  0  0  0  0  0  0  0  0  0  0  0
   54.8226  157.7542   -4.0853 H   0  0  0  0  0  0  0  0  0  0  0  0
   53.5837  158.0563   -5.3175 H   0  0  0  0  0  0  0  0  0  0  0  0
   53.1798  158.2192   -3.6096 H   0  0  0  0  0  0  0  0  0  0  0  0
   60.5496  156.7550   -9.1614 H   0  0  0  0  0  0  0  0  0  0  0  0
   58.8393  156.2471   -9.0038 H   0  0  0  0  0  0  0  0  0  0  0  0
   60.0411  155.1384   -9.7156 H   0  0  0  0  0  0  0  0  0  0  0  0
   56.8908  152.9934   -7.4329 H   0  0  0  0  0  0  0  0  0  0  0  0
   57.4066  153.0831   -5.7581 H   0  0  0  0  0  0  0  0  0  0  0  0
   58.0856  155.4872   -6.0823 H   0  0  0  0  0  0  0  0  0  0  0  0
   57.5311  155.4359   -7.7379 H   0  0  0  0  0  0  0  0  0  0  0  0
   59.7725  153.6898   -6.5784 H   0  0  0  0  0  0  0  0  0  0  0  0
   59.2132  153.6566   -8.2708 H   0  0  0  0  0  0  0  0  0  0  0  0
   52.2928  156.0907   -4.5181 H   0  0  0  0  0  0  0  0  0  0  0  0
   52.6230  154.4697   -6.4293 H   0  0  0  0  0  0  0  0  0  0  0  0
   53.4249  154.7100   -2.6943 H   0  0  0  0  0  0  0  0  0  0  0  0
   53.2345  156.3634   -2.1616 H   0  0  0  0  0  0  0  0  0  0  0  0
  1  5  1  0  0  0  0
  1  9  1  0  0  0  0
  1 10  2  0  0  0  0
  2  8  1  0  0  0  0
  2  9  2  0  0  0  0
  2 11  1  0  0  0  0
  3  8  1  0  0  0  0
  4 13  1  0  0  0  0
  5  6  1  0  0  0  0
  6  7  1  0  0  0  0
  7 13  1  0  0  0  0
  8 12  1  0  0  0  0
 10 11  1  0  0  0  0
  3 14  1  0  0  0  0
  3 15  1  0  0  0  0
  3 16  1  0  0  0  0
  4 17  1  0  0  0  0
  4 18  1  0  0  0  0
  4 19  1  0  0  0  0
  5 20  1  0  0  0  0
  5 21  1  0  0  0  0
  6 22  1  0  0  0  0
  6 23  1  0  0  0  0
  7 24  1  0  0  0  0
  7 25  1  0  0  0  0
  8 26  1  0  0  0  0
 11 27  1  0  0  0  0
 12 28  1  0  0  0  0
 12 29  1  0  0  0  0
M  END
> <FRED Chemgauss4 score>
-7.563571

$$$$
C62701028	P96198372
  -OEChem-05122015073D

 33 34  0     0  0  0  0  0  0999 V2000
   61.0058  161.5349   -7.4600 C   0  0  0  0  0  0  0  0  0  0  0  0
   56.7537  158.9634   -2.0811 C   0  0  0  0  0  0  0  0  0  0  0  0
   60.1232  160.6535   -6.8357 C   0  0  0  0  0  0  0  0  0  0  0  0
   55.6576  158.1283   -1.8655 C   0  0  0  0  0  0  0  0  0  0  0  0
   61.6094  162.5550   -6.7247 C   0  0  0  0  0  0  0  0  0  0  0  0
   56.3997  158.8124   -4.4662 C   0  0  0  0  0  0  0  0  0  0  0  0
   60.4476  161.8124   -4.7408 C   0  0  0  0  0  0  0  0  0  0  0  0
   57.1247  159.3056   -3.3815 C   0  0  0  0  0  0  0  0  0  0  0  0
   59.8440  160.7923   -5.4761 C   0  0  0  0  0  0  0  0  0  0  0  0
   54.9325  157.6351   -2.9502 C   0  0  0  0  0  0  0  0  0  0  0  0
   61.3302  162.6938   -5.3651 C   0  0  0  0  0  0  0  0  0  0  0  0
   55.3035  157.9772   -4.2506 C   0  0  0  0  0  0  0  0  0  0  0  0
   58.2970  160.1984   -3.6108 C   0  0  0  0  0  0  0  0  0  0  0  0
   61.4214  163.6918   -2.8952 N   0  0  0  0  0  0  0  0  0  0  0  0
   58.9656  159.9160   -4.8556 N   0  0  0  0  0  0  0  0  0  0  0  0
   63.5201  163.7092   -4.3920 O   0  0  0  0  0  0  0  0  0  0  0  0
   61.6026  165.2490   -4.9395 O   0  0  0  0  0  0  0  0  0  0  0  0
   53.8675  156.8200   -2.7058 O   0  0  0  0  0  0  0  0  0  0  0  0
   62.0882  163.9688   -4.4437 S   0  0  0  0  0  0  0  0  0  0  0  0
   54.3422  157.3243   -5.7481 Br  0  0  0  0  0  0  0  0  0  0  0  0
   61.2234  161.4269   -8.5184 H   0  0  0  0  0  0  0  0  0  0  0  0
   57.3123  159.3424   -1.2292 H   0  0  0  0  0  0  0  0  0  0  0  0
   59.6583  159.8625   -7.4185 H   0  0  0  0  0  0  0  0  0  0  0  0
   55.3744  157.8661   -0.8495 H   0  0  0  0  0  0  0  0  0  0  0  0
   62.2963  163.2356   -7.2207 H   0  0  0  0  0  0  0  0  0  0  0  0
   56.6960  159.0849   -5.4769 H   0  0  0  0  0  0  0  0  0  0  0  0
   60.2299  161.9209   -3.6805 H   0  0  0  0  0  0  0  0  0  0  0  0
   57.9927  161.2543   -3.6320 H   0  0  0  0  0  0  0  0  0  0  0  0
   59.0420  160.0993   -2.8093 H   0  0  0  0  0  0  0  0  0  0  0  0
   62.0371  163.3104   -2.1666 H   0  0  0  0  0  0  0  0  0  0  0  0
   60.7266  164.3615   -2.5428 H   0  0  0  0  0  0  0  0  0  0  0  0
   58.7858  159.0239   -5.3057 H   0  0  0  0  0  0  0  0  0  0  0  0
   53.7581  156.6903   -1.7510 H   0  0  0  0  0  0  0  0  0  0  0  0
  1  3  1  0  0  0  0
  1  5  2  0  0  0  0
  2  4  2  0  0  0  0
  2  8  1  0  0  0  0
  3  9  2  0  0  0  0
  4 10  1  0  0  0  0
  5 11  1  0  0  0  0
  6  8  2  0  0  0  0
  6 12  1  0  0  0  0
  7  9  1  0  0  0  0
  7 11  2  0  0  0  0
  8 13  1  0  0  0  0
  9 15  1  0  0  0  0
 10 12  2  0  0  0  0
 10 18  1  0  0  0  0
 11 19  1  0  0  0  0
 12 20  1  0  0  0  0
 13 15  1  0  0  0  0
 14 19  1  0  0  0  0
 16 19  2  0  0  0  0
 17 19  2  0  0  0  0
  1 21  1  0  0  0  0
  2 22  1  0  0  0  0
  3 23  1  0  0  0  0
  4 24  1  0  0  0  0
  5 25  1  0  0  0  0
  6 26  1  0  0  0  0
  7 27  1  0  0  0  0
 13 28  1  0  0  0  0
 13 29  1  0  0  0  0
 14 30  1  0  0  0  0
 14 31  1  0  0  0  0
 15 32  1  0  0  0  0
 18 33  1  0  0  0  0
M  END
> <FRED Chemgauss4 score>
-7.562155

$$$$
C43115293	P65342176
  -OEChem-05122015073D

 30 31  0     1  0  0  0  0  0999 V2000
   58.9112  156.5220   -7.7611 C   0  0  0  0  0  0  0  0  0  0  0  0
   59.4027  157.5921   -8.4760 C   0  0  0  0  0  0  0  0  0  0  0  0
   57.7661  158.2894   -6.7775 C   0  0  0  0  0  0  0  0  0  0  0  0
   57.9629  156.9259   -6.7773 C   0  0  0  0  0  0  0  0  0  0  0  0
   54.1600  156.3579   -3.7378 C   0  0  0  0  0  0  0  0  0  0  0  0
   55.5122  155.8440   -4.1903 C   0  0  0  0  0  0  0  0  0  0  0  0
   53.7191  157.1054   -6.0743 C   0  0  0  0  0  0  0  0  0  0  0  0
   54.9655  156.3386   -6.4775 C   0  0  0  0  0  0  0  0  0  0  0  0
   57.0636  154.5628   -6.4391 C   0  0  0  0  0  0  0  0  0  0  0  0
   57.2544  155.9645   -5.8389 C   0  0  2  0  0  0  0  0  0  0  0  0
   53.3105  156.8260   -4.7148 N   0  0  0  0  0  0  0  0  0  0  0  0
   55.9628  156.5077   -5.4180 N   0  0  2  0  0  0  0  0  0  0  0  0
   58.2498  153.7560   -6.3184 N   0  0  0  0  0  0  0  0  0  0  0  0
   53.8205  156.2713   -2.5560 O   0  0  0  0  0  0  0  0  0  0  0  0
   58.7219  159.0764   -7.9605 S   0  0  0  0  0  0  0  0  0  0  0  0
   59.2202  155.4996   -7.9386 H   0  0  0  0  0  0  0  0  0  0  0  0
   60.1296  157.5733   -9.2757 H   0  0  0  0  0  0  0  0  0  0  0  0
   57.1087  158.8651   -6.1407 H   0  0  0  0  0  0  0  0  0  0  0  0
   56.2190  155.9899   -3.3638 H   0  0  0  0  0  0  0  0  0  0  0  0
   55.4070  154.7679   -4.3722 H   0  0  0  0  0  0  0  0  0  0  0  0
   53.8791  158.1846   -6.1604 H   0  0  0  0  0  0  0  0  0  0  0  0
   52.8742  156.8372   -6.7189 H   0  0  0  0  0  0  0  0  0  0  0  0
   54.6988  155.2826   -6.6041 H   0  0  0  0  0  0  0  0  0  0  0  0
   55.3465  156.7009   -7.4413 H   0  0  0  0  0  0  0  0  0  0  0  0
   56.2681  154.0234   -5.9123 H   0  0  0  0  0  0  0  0  0  0  0  0
   56.7959  154.5940   -7.5006 H   0  0  0  0  0  0  0  0  0  0  0  0
   57.8627  155.8584   -4.9311 H   0  0  0  0  0  0  0  0  0  0  0  0
   52.3390  156.9846   -4.4662 H   0  0  0  0  0  0  0  0  0  0  0  0
   58.3928  152.9959   -6.9630 H   0  0  0  0  0  0  0  0  0  0  0  0
   58.8081  153.8280   -5.4836 H   0  0  0  0  0  0  0  0  0  0  0  0
  1  2  2  0  0  0  0
  1  4  1  0  0  0  0
  2 15  1  0  0  0  0
  3  4  2  0  0  0  0
  3 15  1  0  0  0  0
  4 10  1  0  0  0  0
  5  6  1  0  0  0  0
  5 11  1  0  0  0  0
  5 14  2  0  0  0  0
  6 12  1  0  0  0  0
  7  8  1  0  0  0  0
  7 11  1  0  0  0  0
  8 12  1  0  0  0  0
  9 10  1  0  0  0  0
  9 13  1  0  0  0  0
 10 12  1  0  0  0  0
  1 16  1  0  0  0  0
  2 17  1  0  0  0  0
  3 18  1  0  0  0  0
  6 19  1  0  0  0  0
  6 20  1  0  0  0  0
  7 21  1  0  0  0  0
  7 22  1  0  0  0  0
  8 23  1  0  0  0  0
  8 24  1  0  0  0  0
  9 25  1  0  0  0  0
  9 26  1  0  0  0  0
 10 27  1  0  0  0  0
 11 28  1  0  0  0  0
 13 29  1  0  0  0  0
 13 30  1  0  0  0  0
M  END
> <FRED Chemgauss4 score>
-7.557793

$$$$
C90931135	P142254808
  -OEChem-05122015073D

 34 35  0     0  0  0  0  0  0999 V2000
   61.0635  163.4346   -3.7384 C   0  0  0  0  0  0  0  0  0  0  0  0
   60.3048  162.1158   -5.6152 C   0  0  0  0  0  0  0  0  0  0  0  0
   62.1870  163.8250   -4.4670 C   0  0  0  0  0  0  0  0  0  0  0  0
   61.4283  162.5062   -6.3438 C   0  0  0  0  0  0  0  0  0  0  0  0
   58.1982  157.6872   -5.3274 C   0  0  0  0  0  0  0  0  0  0  0  0
   60.1224  162.5799   -4.3125 C   0  0  0  0  0  0  0  0  0  0  0  0
   62.3694  163.3609   -5.7696 C   0  0  0  0  0  0  0  0  0  0  0  0
   57.6621  158.6775   -4.5312 C   0  0  0  0  0  0  0  0  0  0  0  0
   55.7966  157.6989   -5.1413 C   0  0  0  0  0  0  0  0  0  0  0  0
   58.4684  159.6835   -3.8218 C   0  0  0  0  0  0  0  0  0  0  0  0
   57.2341  161.3552   -5.1469 C   0  0  0  0  0  0  0  0  0  0  0  0
   58.9208  162.1628   -3.5339 C   0  0  0  0  0  0  0  0  0  0  0  0
   54.3557  157.3903   -5.2690 C   0  0  0  0  0  0  0  0  0  0  0  0
   56.2851  158.6860   -4.4236 N   0  0  0  0  0  0  0  0  0  0  0  0
   53.8139  156.7486   -4.0924 N   0  0  0  0  0  0  0  0  0  0  0  0
   58.2428  161.0407   -4.1319 N   0  0  0  0  0  0  0  0  0  0  0  0
   59.2751  159.2527   -2.9986 O   0  0  0  0  0  0  0  0  0  0  0  0
   63.4652  163.7430   -6.4809 O   0  0  0  0  0  0  0  0  0  0  0  0
   56.9363  156.7205   -5.9712 S   0  0  0  0  0  0  0  0  0  0  0  0
   60.9294  163.8010   -2.7242 H   0  0  0  0  0  0  0  0  0  0  0  0
   59.5767  161.4494   -6.0705 H   0  0  0  0  0  0  0  0  0  0  0  0
   62.9165  164.4913   -4.0143 H   0  0  0  0  0  0  0  0  0  0  0  0
   61.5645  162.1416   -7.3580 H   0  0  0  0  0  0  0  0  0  0  0  0
   59.2354  157.4868   -5.5568 H   0  0  0  0  0  0  0  0  0  0  0  0
   56.2554  161.4829   -4.6770 H   0  0  0  0  0  0  0  0  0  0  0  0
   57.1698  160.5459   -5.8793 H   0  0  0  0  0  0  0  0  0  0  0  0
   57.4976  162.2795   -5.6680 H   0  0  0  0  0  0  0  0  0  0  0  0
   59.1931  161.8754   -2.5087 H   0  0  0  0  0  0  0  0  0  0  0  0
   58.1909  162.9798   -3.4507 H   0  0  0  0  0  0  0  0  0  0  0  0
   53.7568  158.3009   -5.4422 H   0  0  0  0  0  0  0  0  0  0  0  0
   54.1484  156.7204   -6.1207 H   0  0  0  0  0  0  0  0  0  0  0  0
   53.0130  156.1516   -4.1923 H   0  0  0  0  0  0  0  0  0  0  0  0
   54.1125  157.0657   -3.1877 H   0  0  0  0  0  0  0  0  0  0  0  0
   63.4505  163.3402   -7.3637 H   0  0  0  0  0  0  0  0  0  0  0  0
  1  3  2  0  0  0  0
  1  6  1  0  0  0  0
  2  4  1  0  0  0  0
  2  6  2  0  0  0  0
  3  7  1  0  0  0  0
  4  7  2  0  0  0  0
  5  8  2  0  0  0  0
  5 19  1  0  0  0  0
  6 12  1  0  0  0  0
  7 18  1  0  0  0  0
  8 10  1  0  0  0  0
  8 14  1  0  0  0  0
  9 13  1  0  0  0  0
  9 14  2  0  0  0  0
  9 19  1  0  0  0  0
 10 16  1  0  0  0  0
 10 17  2  0  0  0  0
 11 16  1  0  0  0  0
 12 16  1  0  0  0  0
 13 15  1  0  0  0  0
  1 20  1  0  0  0  0
  2 21  1  0  0  0  0
  3 22  1  0  0  0  0
  4 23  1  0  0  0  0
  5 24  1  0  0  0  0
 11 25  1  0  0  0  0
 11 26  1  0  0  0  0
 11 27  1  0  0  0  0
 12 28  1  0  0  0  0
 12 29  1  0  0  0  0
 13 30  1  0  0  0  0
 13 31  1  0  0  0  0
 15 32  1  0  0  0  0
 15 33  1  0  0  0  0
 18 34  1  0  0  0  0
M  END
> <FRED Chemgauss4 score>
-7.555796

$$$$
C87600283	P137027686
  -OEChem-05122015073D

 26 27  0     1  0  0  0  0  0999 V2000
   56.1507  154.8955   -7.3235 C   0  0  0  0  0  0  0  0  0  0  0  0
   53.6168  156.3923   -3.1028 C   0  0  0  0  0  0  0  0  0  0  0  0
   58.0343  155.4701   -6.3452 C   0  0  0  0  0  0  0  0  0  0  0  0
   56.7184  155.8479   -6.4561 C   0  0  0  0  0  0  0  0  0  0  0  0
   54.2838  156.0075   -4.2358 C   0  0  0  0  0  0  0  0  0  0  0  0
   59.3789  153.5968   -7.3256 C   0  0  0  0  0  0  0  0  0  0  0  0
   56.0366  157.0239   -5.7963 C   0  0  0  0  0  0  0  0  0  0  0  0
   54.5428  156.7734   -5.5162 C   0  0  2  0  0  0  0  0  0  0  0  0
   54.3209  154.3897   -2.8361 N   0  5  0  0  0  0  0  0  0  0  0  0
   53.6306  155.3864   -2.2110 N   0  0  0  0  0  0  0  0  0  0  0  0
   57.0337  153.9815   -7.7346 N   0  0  0  0  0  0  0  0  0  0  0  0
   54.7337  154.7496   -4.0856 N   0  0  0  0  0  0  0  0  0  0  0  0
   58.1696  154.3579   -7.1230 N   0  0  0  0  0  0  0  0  0  0  0  0
   53.8668  158.1117   -5.5273 N   0  3  0  0  0  0  0  0  0  0  0  0
   55.1310  154.8278   -7.6753 H   0  0  0  0  0  0  0  0  0  0  0  0
   53.1376  157.3417   -2.9050 H   0  0  0  0  0  0  0  0  0  0  0  0
   58.8656  155.8884   -5.7939 H   0  0  0  0  0  0  0  0  0  0  0  0
   59.4210  152.8197   -6.5579 H   0  0  0  0  0  0  0  0  0  0  0  0
   59.3643  153.1485   -8.3229 H   0  0  0  0  0  0  0  0  0  0  0  0
   60.2428  154.2625   -7.2449 H   0  0  0  0  0  0  0  0  0  0  0  0
   56.1736  157.9230   -6.4116 H   0  0  0  0  0  0  0  0  0  0  0  0
   56.5645  157.2320   -4.8554 H   0  0  0  0  0  0  0  0  0  0  0  0
   54.0947  156.2360   -6.3610 H   0  0  0  0  0  0  0  0  0  0  0  0
   54.1251  158.6424   -4.6955 H   0  0  0  0  0  0  0  0  0  0  0  0
   52.8536  157.9925   -5.5399 H   0  0  0  0  0  0  0  0  0  0  0  0
   54.1464  158.6394   -6.3544 H   0  0  0  0  0  0  0  0  0  0  0  0
  1  4  1  0  0  0  0
  1 11  2  0  0  0  0
  2  5  1  0  0  0  0
  2 10  2  0  0  0  0
  3  4  2  0  0  0  0
  3 13  1  0  0  0  0
  4  7  1  0  0  0  0
  5  8  1  0  0  0  0
  5 12  2  0  0  0  0
  6 13  1  0  0  0  0
  7  8  1  0  0  0  0
  8 14  1  0  0  0  0
  9 10  1  0  0  0  0
  9 12  1  0  0  0  0
 11 13  1  0  0  0  0
  1 15  1  0  0  0  0
  2 16  1  0  0  0  0
  3 17  1  0  0  0  0
  6 18  1  0  0  0  0
  6 19  1  0  0  0  0
  6 20  1  0  0  0  0
  7 21  1  0  0  0  0
  7 22  1  0  0  0  0
  8 23  1  0  0  0  0
 14 24  1  0  0  0  0
 14 25  1  0  0  0  0
 14 26  1  0  0  0  0
M  CHG  2   9  -1  14   1
M  END
> <FRED Chemgauss4 score>
-7.552916

$$$$
C82515892	P128954846
  -OEChem-05122015073D

 28 28  0     1  0  0  0  0  0999 V2000
   54.3111  156.2688   -3.4664 C   0  0  0  0  0  0  0  0  0  0  0  0
   55.6920  155.7166   -3.7453 C   0  0  0  0  0  0  0  0  0  0  0  0
   55.5774  154.5821   -4.7558 C   0  0  0  0  0  0  0  0  0  0  0  0
   54.0897  156.2998   -5.9361 C   0  0  0  0  0  0  0  0  0  0  0  0
   55.0044  155.0781   -6.0924 C   0  0  2  0  0  0  0  0  0  0  0  0
   54.5557  151.9906   -8.2180 C   0  0  0  0  0  0  0  0  0  0  0  0
   55.2464  153.1224   -7.4686 C   0  0  0  0  0  0  0  0  0  0  0  0
   53.6018  152.4915   -9.2957 C   0  0  0  0  0  0  0  0  0  0  0  0
   53.5415  156.4412   -4.6020 N   0  0  0  0  0  0  0  0  0  0  0  0
   54.3040  153.9915   -6.7794 N   0  0  0  0  0  0  0  0  0  0  0  0
   53.9319  156.5474   -2.3315 O   0  0  0  0  0  0  0  0  0  0  0  0
   52.9949  151.3712   -9.9259 O   0  0  0  0  0  0  0  0  0  0  0  0
   56.2840  156.5141   -4.1514 H   0  0  0  0  0  0  0  0  0  0  0  0
   56.1121  155.3477   -2.8313 H   0  0  0  0  0  0  0  0  0  0  0  0
   56.5707  154.1294   -4.9075 H   0  0  0  0  0  0  0  0  0  0  0  0
   54.9341  153.7857   -4.3437 H   0  0  0  0  0  0  0  0  0  0  0  0
   54.6311  157.2243   -6.1721 H   0  0  0  0  0  0  0  0  0  0  0  0
   53.2318  156.2379   -6.6190 H   0  0  0  0  0  0  0  0  0  0  0  0
   55.8715  155.3675   -6.7528 H   0  0  0  0  0  0  0  0  0  0  0  0
   55.3140  151.3496   -8.6847 H   0  0  0  0  0  0  0  0  0  0  0  0
   54.0079  151.3463   -7.5187 H   0  0  0  0  0  0  0  0  0  0  0  0
   55.9189  152.7142   -6.7077 H   0  0  0  0  0  0  0  0  0  0  0  0
   55.8371  153.7428   -8.1501 H   0  0  0  0  0  0  0  0  0  0  0  0
   52.8114  153.1156   -8.8673 H   0  0  0  0  0  0  0  0  0  0  0  0
   54.1396  153.0679  -10.0551 H   0  0  0  0  0  0  0  0  0  0  0  0
   52.5813  156.6694   -4.4976 H   0  0  0  0  0  0  0  0  0  0  0  0
   53.7817  153.4474   -6.0947 H   0  0  0  0  0  0  0  0  0  0  0  0
   52.3956  151.7222  -10.6042 H   0  0  0  0  0  0  0  0  0  0  0  0
  1  2  1  0  0  0  0
  1  9  1  0  0  0  0
  1 11  2  0  0  0  0
  2  3  1  0  0  0  0
  3  5  1  0  0  0  0
  4  5  1  0  0  0  0
  4  9  1  0  0  0  0
  5 10  1  0  0  0  0
  6  7  1  0  0  0  0
  6  8  1  0  0  0  0
  7 10  1  0  0  0  0
  8 12  1  0  0  0  0
  2 13  1  0  0  0  0
  2 14  1  0  0  0  0
  3 15  1  0  0  0  0
  3 16  1  0  0  0  0
  4 17  1  0  0  0  0
  4 18  1  0  0  0  0
  5 19  1  0  0  0  0
  6 20  1  0  0  0  0
  6 21  1  0  0  0  0
  7 22  1  0  0  0  0
  7 23  1  0  0  0  0
  8 24  1  0  0  0  0
  8 25  1  0  0  0  0
  9 26  1  0  0  0  0
 10 27  1  0  0  0  0
 12 28  1  0  0  0  0
M  END
> <FRED Chemgauss4 score>
-7.549496

$$$$
C70415977	P108563875
  -OEChem-05122015073D

 32 33  0     0  0  0  0  0  0999 V2000
   56.7203  158.3136   -4.7876 C   0  0  0  0  0  0  0  0  0  0  0  0
   56.3393  159.8498   -2.9622 C   0  0  0  0  0  0  0  0  0  0  0  0
   57.8936  158.9933   -5.1147 C   0  0  0  0  0  0  0  0  0  0  0  0
   57.5126  160.5295   -3.2893 C   0  0  0  0  0  0  0  0  0  0  0  0
   55.4808  154.8780   -5.1838 C   0  0  0  0  0  0  0  0  0  0  0  0
   53.6280  154.8764   -6.3953 C   0  0  0  0  0  0  0  0  0  0  0  0
   55.9431  158.7419   -3.7113 C   0  0  0  0  0  0  0  0  0  0  0  0
   58.2898  160.1013   -4.3656 C   0  0  0  0  0  0  0  0  0  0  0  0
   54.5581  155.6569   -4.5444 C   0  0  0  0  0  0  0  0  0  0  0  0
   60.8240  162.6969   -4.8176 C   0  0  0  0  0  0  0  0  0  0  0  0
   59.4791  162.1604   -4.3940 C   0  0  0  0  0  0  0  0  0  0  0  0
   54.8092  158.0863   -3.3962 N   0  5  0  0  0  0  0  0  0  0  0  0
   53.4216  155.6385   -5.3164 N   0  0  0  0  0  0  0  0  0  0  0  0
   54.8783  154.4079   -6.3257 N   0  3  0  0  0  0  0  0  0  0  0  0
   61.1010  162.5872   -6.1537 N   0  0  0  0  0  0  0  0  0  0  0  0
   53.6098  156.1260   -2.2196 O   0  0  0  0  0  0  0  0  0  0  0  0
   56.0457  156.0045   -2.4990 O   0  0  0  0  0  0  0  0  0  0  0  0
   59.4349  160.7643   -4.6844 O   0  0  0  0  0  0  0  0  0  0  0  0
   61.8879  163.3987   -3.7377 S   0  0  0  0  0  0  0  0  0  0  0  0
   54.7793  156.5438   -2.9899 S   0  0  0  0  0  0  0  0  0  0  0  0
   56.4271  157.4523   -5.3839 H   0  0  0  0  0  0  0  0  0  0  0  0
   55.7458  160.1989   -2.1200 H   0  0  0  0  0  0  0  0  0  0  0  0
   58.4947  158.6557   -5.9550 H   0  0  0  0  0  0  0  0  0  0  0  0
   57.8155  161.3924   -2.7027 H   0  0  0  0  0  0  0  0  0  0  0  0
   56.4934  154.5785   -5.0000 H   0  0  0  0  0  0  0  0  0  0  0  0
   52.9157  154.6765   -7.1782 H   0  0  0  0  0  0  0  0  0  0  0  0
   59.3386  162.2866   -3.3161 H   0  0  0  0  0  0  0  0  0  0  0  0
   58.6576  162.6639   -4.9133 H   0  0  0  0  0  0  0  0  0  0  0  0
   52.5562  156.1263   -5.1021 H   0  0  0  0  0  0  0  0  0  0  0  0
   55.3123  153.7974   -7.0125 H   0  0  0  0  0  0  0  0  0  0  0  0
   60.4476  162.1754   -6.8120 H   0  0  0  0  0  0  0  0  0  0  0  0
   61.9803  162.9208   -6.5346 H   0  0  0  0  0  0  0  0  0  0  0  0
  1  3  1  0  0  0  0
  1  7  2  0  0  0  0
  2  4  2  0  0  0  0
  2  7  1  0  0  0  0
  3  8  2  0  0  0  0
  4  8  1  0  0  0  0
  5  9  2  0  0  0  0
  5 14  1  0  0  0  0
  6 13  1  0  0  0  0
  6 14  2  0  0  0  0
  7 12  1  0  0  0  0
  8 18  1  0  0  0  0
  9 13  1  0  0  0  0
  9 20  1  0  0  0  0
 10 11  1  0  0  0  0
 10 15  1  0  0  0  0
 10 19  2  0  0  0  0
 11 18  1  0  0  0  0
 12 20  1  0  0  0  0
 16 20  2  0  0  0  0
 17 20  2  0  0  0  0
  1 21  1  0  0  0  0
  2 22  1  0  0  0  0
  3 23  1  0  0  0  0
  4 24  1  0  0  0  0
  5 25  1  0  0  0  0
  6 26  1  0  0  0  0
 11 27  1  0  0  0  0
 11 28  1  0  0  0  0
 13 29  1  0  0  0  0
 14 30  1  0  0  0  0
 15 31  1  0  0  0  0
 15 32  1  0  0  0  0
M  CHG  2  12  -1  14   1
M  END
> <FRED Chemgauss4 score>
-7.549147

$$$$
C19331409	P28924605
  -OEChem-05122015073D

 51 53  0     1  0  0  0  0  0999 V2000
   60.0587  158.0512   -6.4841 C   0  0  0  0  0  0  0  0  0  0  0  0
   57.9639  157.1867   -7.4465 C   0  0  0  0  0  0  0  0  0  0  0  0
   59.0075  156.0901   -5.4300 C   0  0  0  0  0  0  0  0  0  0  0  0
   57.9449  159.3017   -6.2887 C   0  0  0  0  0  0  0  0  0  0  0  0
   58.9900  158.2037   -4.2695 C   0  0  0  0  0  0  0  0  0  0  0  0
   56.9423  157.3806   -5.2358 C   0  0  0  0  0  0  0  0  0  0  0  0
   59.2930  156.7597   -6.7901 C   0  0  0  0  0  0  0  0  0  0  0  0
   59.2753  158.9944   -5.5658 C   0  0  0  0  0  0  0  0  0  0  0  0
   60.0875  155.8326   -7.7056 C   0  0  0  0  0  0  0  0  0  0  0  0
   60.7216  162.5390   -6.1353 C   0  0  0  0  0  0  0  0  0  0  0  0
   60.0508  160.2751   -5.2709 C   0  0  0  0  0  0  0  0  0  0  0  0
   59.9711  161.2523   -6.4393 C   0  0  0  0  0  0  0  0  0  0  0  0
   53.4003  156.4436   -3.4985 C   0  0  0  0  0  0  0  0  0  0  0  0
   56.0204  158.1952   -4.3161 C   0  0  2  0  0  0  0  0  0  0  0  0
   54.8695  156.1824   -3.1696 C   0  0  1  0  0  0  0  0  0  0  0  0
   55.6740  157.4809   -3.0046 C   0  0  2  0  0  0  0  0  0  0  0  0
   57.1785  158.0560   -6.5397 N   0  0  2  0  0  0  0  0  0  0  0  0
   58.2039  156.9786   -4.5585 N   0  0  1  0  0  0  0  0  0  0  0  0
   61.1752  158.3020   -6.9254 O   0  0  0  0  0  0  0  0  0  0  0  0
   52.7256  155.1939   -3.6062 O   0  0  0  0  0  0  0  0  0  0  0  0
   54.8146  158.4494   -5.0364 O   0  0  0  0  0  0  0  0  0  0  0  0
   54.9364  155.4352   -1.9535 O   0  0  0  0  0  0  0  0  0  0  0  0
   54.9065  158.3940   -2.2109 O   0  0  0  0  0  0  0  0  0  0  0  0
   58.1522  157.7258   -8.3850 H   0  0  0  0  0  0  0  0  0  0  0  0
   57.3712  156.3089   -7.7297 H   0  0  0  0  0  0  0  0  0  0  0  0
   58.4896  155.1339   -5.5689 H   0  0  0  0  0  0  0  0  0  0  0  0
   59.9467  155.8406   -4.9178 H   0  0  0  0  0  0  0  0  0  0  0  0
   57.3317  159.9879   -5.6902 H   0  0  0  0  0  0  0  0  0  0  0  0
   58.1275  159.8143   -7.2426 H   0  0  0  0  0  0  0  0  0  0  0  0
   59.9264  157.9245   -3.7685 H   0  0  0  0  0  0  0  0  0  0  0  0
   58.4382  158.8257   -3.5527 H   0  0  0  0  0  0  0  0  0  0  0  0
   56.3678  156.4643   -5.4371 H   0  0  0  0  0  0  0  0  0  0  0  0
   59.5155  154.9268   -7.9021 H   0  0  0  0  0  0  0  0  0  0  0  0
   61.0299  155.5622   -7.2311 H   0  0  0  0  0  0  0  0  0  0  0  0
   60.2956  156.3339   -8.6499 H   0  0  0  0  0  0  0  0  0  0  0  0
   60.3225  163.0234   -5.2383 H   0  0  0  0  0  0  0  0  0  0  0  0
   60.6268  163.2397   -6.9708 H   0  0  0  0  0  0  0  0  0  0  0  0
   61.7868  162.3435   -5.9752 H   0  0  0  0  0  0  0  0  0  0  0  0
   59.6426  160.7360   -4.3661 H   0  0  0  0  0  0  0  0  0  0  0  0
   61.0946  160.0177   -5.0659 H   0  0  0  0  0  0  0  0  0  0  0  0
   60.3944  160.7935   -7.3407 H   0  0  0  0  0  0  0  0  0  0  0  0
   58.9235  161.4899   -6.6579 H   0  0  0  0  0  0  0  0  0  0  0  0
   52.9170  157.0229   -2.7058 H   0  0  0  0  0  0  0  0  0  0  0  0
   53.2893  156.9632   -4.4556 H   0  0  0  0  0  0  0  0  0  0  0  0
   56.4781  159.1665   -4.1223 H   0  0  0  0  0  0  0  0  0  0  0  0
   55.3139  155.5596   -3.9540 H   0  0  0  0  0  0  0  0  0  0  0  0
   56.5884  157.2701   -2.4365 H   0  0  0  0  0  0  0  0  0  0  0  0
   51.8000  155.3957   -3.8146 H   0  0  0  0  0  0  0  0  0  0  0  0
   54.2448  158.9629   -4.4441 H   0  0  0  0  0  0  0  0  0  0  0  0
   54.4573  154.6089   -2.1147 H   0  0  0  0  0  0  0  0  0  0  0  0
   55.4724  159.1655   -2.0663 H   0  0  0  0  0  0  0  0  0  0  0  0
  1  7  1  0  0  0  0
  1  8  1  0  0  0  0
  1 19  2  0  0  0  0
  2  7  1  0  0  0  0
  2 17  1  0  0  0  0
  3  7  1  0  0  0  0
  3 18  1  0  0  0  0
  4  8  1  0  0  0  0
  4 17  1  0  0  0  0
  5  8  1  0  0  0  0
  5 18  1  0  0  0  0
  6 14  1  0  0  0  0
  6 17  1  0  0  0  0
  6 18  1  0  0  0  0
  7  9  1  0  0  0  0
  8 11  1  0  0  0  0
 10 12  1  0  0  0  0
 11 12  1  0  0  0  0
 13 15  1  0  0  0  0
 13 20  1  0  0  0  0
 14 16  1  0  0  0  0
 14 21  1  0  0  0  0
 15 16  1  0  0  0  0
 15 22  1  0  0  0  0
 16 23  1  0  0  0  0
  2 24  1  0  0  0  0
  2 25  1  0  0  0  0
  3 26  1  0  0  0  0
  3 27  1  0  0  0  0
  4 28  1  0  0  0  0
  4 29  1  0  0  0  0
  5 30  1  0  0  0  0
  5 31  1  0  0  0  0
  6 32  1  0  0  0  0
  9 33  1  0  0  0  0
  9 34  1  0  0  0  0
  9 35  1  0  0  0  0
 10 36  1  0  0  0  0
 10 37  1  0  0  0  0
 10 38  1  0  0  0  0
 11 39  1  0  0  0  0
 11 40  1  0  0  0  0
 12 41  1  0  0  0  0
 12 42  1  0  0  0  0
 13 43  1  0  0  0  0
 13 44  1  0  0  0  0
 14 45  1  0  0  0  0
 15 46  1  0  0  0  0
 16 47  1  0  0  0  0
 20 48  1  0  0  0  0
 21 49  1  0  0  0  0
 22 50  1  0  0  0  0
 23 51  1  0  0  0  0
M  END
> <FRED Chemgauss4 score>
-7.546137

$$$$
C51123437	P76554058
  -OEChem-05122015073D

 35 36  0     1  0  0  0  0  0999 V2000
   56.8731  158.3646   -4.0370 C   0  0  0  0  0  0  0  0  0  0  0  0
   60.6663  157.7357   -8.9567 C   0  0  0  0  0  0  0  0  0  0  0  0
   55.6524  158.7947   -2.0417 C   0  0  0  0  0  0  0  0  0  0  0  0
   60.3561  156.3988   -8.8725 C   0  0  0  0  0  0  0  0  0  0  0  0
   59.5443  157.5240   -7.1603 C   0  0  0  0  0  0  0  0  0  0  0  0
   55.9325  157.3954   -4.3674 C   0  0  0  0  0  0  0  0  0  0  0  0
   56.7377  159.0820   -2.8537 C   0  0  0  0  0  0  0  0  0  0  0  0
   54.8834  157.1834   -3.4875 C   0  0  0  0  0  0  0  0  0  0  0  0
   56.0847  156.6346   -5.6343 C   0  0  0  0  0  0  0  0  0  0  0  0
   56.9560  153.7303   -6.8231 C   0  0  0  0  0  0  0  0  0  0  0  0
   59.0719  155.0453   -7.1736 C   0  0  0  0  0  0  0  0  0  0  0  0
   57.5572  155.1269   -6.9438 C   0  0  2  0  0  0  0  0  0  0  0  0
   60.1583  158.4306   -7.8877 N   0  0  0  0  0  0  0  0  0  0  0  0
   54.7185  157.8605   -2.3291 N   0  0  0  0  0  0  0  0  0  0  0  0
   59.6377  156.2784   -7.7164 N   0  0  0  0  0  0  0  0  0  0  0  0
   52.7196  156.1193   -3.1587 N   0  0  0  0  0  0  0  0  0  0  0  0
   53.9202  156.1975   -3.8175 N   0  0  0  0  0  0  0  0  0  0  0  0
   57.2526  155.8989   -5.7611 N   0  0  0  0  0  0  0  0  0  0  0  0
   55.2053  156.7093   -6.4885 O   0  0  0  0  0  0  0  0  0  0  0  0
   57.9903  160.4025   -2.3693 Br  0  0  0  0  0  0  0  0  0  0  0  0
   57.7102  158.5577   -4.7042 H   0  0  0  0  0  0  0  0  0  0  0  0
   61.2295  158.2332   -9.7326 H   0  0  0  0  0  0  0  0  0  0  0  0
   55.4886  159.3187   -1.1047 H   0  0  0  0  0  0  0  0  0  0  0  0
   60.5766  155.5550   -9.5113 H   0  0  0  0  0  0  0  0  0  0  0  0
   59.0211  157.7077   -6.2318 H   0  0  0  0  0  0  0  0  0  0  0  0
   57.4146  153.1804   -5.9939 H   0  0  0  0  0  0  0  0  0  0  0  0
   57.1160  153.1543   -7.7404 H   0  0  0  0  0  0  0  0  0  0  0  0
   55.8782  153.7766   -6.6311 H   0  0  0  0  0  0  0  0  0  0  0  0
   59.3264  154.2285   -7.8607 H   0  0  0  0  0  0  0  0  0  0  0  0
   59.5985  154.8478   -6.2313 H   0  0  0  0  0  0  0  0  0  0  0  0
   57.0747  155.6442   -7.7813 H   0  0  0  0  0  0  0  0  0  0  0  0
   52.5333  155.1380   -2.9575 H   0  0  0  0  0  0  0  0  0  0  0  0
   51.9816  156.4211   -3.7935 H   0  0  0  0  0  0  0  0  0  0  0  0
   54.0428  155.6939   -4.6806 H   0  0  0  0  0  0  0  0  0  0  0  0
   57.9635  155.9358   -5.0378 H   0  0  0  0  0  0  0  0  0  0  0  0
  1  6  1  0  0  0  0
  1  7  2  0  0  0  0
  2  4  2  0  0  0  0
  2 13  1  0  0  0  0
  3  7  1  0  0  0  0
  3 14  2  0  0  0  0
  4 15  1  0  0  0  0
  5 13  2  0  0  0  0
  5 15  1  0  0  0  0
  6  8  2  0  0  0  0
  6  9  1  0  0  0  0
  7 20  1  0  0  0  0
  8 14  1  0  0  0  0
  8 17  1  0  0  0  0
  9 18  1  0  0  0  0
  9 19  2  0  0  0  0
 10 12  1  0  0  0  0
 11 12  1  0  0  0  0
 11 15  1  0  0  0  0
 12 18  1  0  0  0  0
 16 17  1  0  0  0  0
  1 21  1  0  0  0  0
  2 22  1  0  0  0  0
  3 23  1  0  0  0  0
  4 24  1  0  0  0  0
  5 25  1  0  0  0  0
 10 26  1  0  0  0  0
 10 27  1  0  0  0  0
 10 28  1  0  0  0  0
 11 29  1  0  0  0  0
 11 30  1  0  0  0  0
 12 31  1  0  0  0  0
 16 32  1  0  0  0  0
 16 33  1  0  0  0  0
 17 34  1  0  0  0  0
 18 35  1  0  0  0  0
M  END
> <FRED Chemgauss4 score>
-7.540584

$$$$
C50394896	P75386401
  -OEChem-05122015073D

 31 32  0     1  0  0  0  0  0999 V2000
   59.2578  159.4111   -2.8725 C   0  0  0  0  0  0  0  0  0  0  0  0
   59.2677  159.8600   -1.5202 C   0  0  0  0  0  0  0  0  0  0  0  0
   57.9827  159.1433   -3.3195 C   0  0  0  0  0  0  0  0  0  0  0  0
   57.9994  159.9184   -0.9853 C   0  0  0  0  0  0  0  0  0  0  0  0
   54.3243  157.1676   -3.7349 C   0  0  0  0  0  0  0  0  0  0  0  0
   55.1681  155.8528   -6.2017 C   0  0  0  0  0  0  0  0  0  0  0  0
   56.1574  155.9551   -5.0500 C   0  0  0  0  0  0  0  0  0  0  0  0
   53.7822  155.6108   -5.6352 C   0  0  0  0  0  0  0  0  0  0  0  0
   55.7988  157.1060   -4.1114 C   0  0  1  0  0  0  0  0  0  0  0  0
   57.9539  159.6023   -5.8056 C   0  0  0  0  0  0  0  0  0  0  0  0
   57.5463  158.6509   -4.6825 C   0  0  2  0  0  0  0  0  0  0  0  0
   53.4324  156.5385   -4.5765 N   0  0  0  0  0  0  0  0  0  0  0  0
   56.1139  158.3995   -4.7193 N   0  0  0  0  0  0  0  0  0  0  0  0
   53.9503  157.8216   -2.7582 O   0  0  0  0  0  0  0  0  0  0  0  0
   56.8042  159.4331   -2.1114 S   0  0  0  0  0  0  0  0  0  0  0  0
   57.5474  160.4001    0.5961 Cl  0  0  0  0  0  0  0  0  0  0  0  0
   60.1440  159.2920   -3.4830 H   0  0  0  0  0  0  0  0  0  0  0  0
   60.1635  160.1253   -0.9731 H   0  0  0  0  0  0  0  0  0  0  0  0
   55.1761  156.7718   -6.7963 H   0  0  0  0  0  0  0  0  0  0  0  0
   55.4546  155.0293   -6.8658 H   0  0  0  0  0  0  0  0  0  0  0  0
   56.1728  155.0026   -4.4917 H   0  0  0  0  0  0  0  0  0  0  0  0
   57.1766  156.0868   -5.4580 H   0  0  0  0  0  0  0  0  0  0  0  0
   53.0242  155.7261   -6.4169 H   0  0  0  0  0  0  0  0  0  0  0  0
   53.6977  154.5970   -5.2328 H   0  0  0  0  0  0  0  0  0  0  0  0
   56.3525  157.0138   -3.1771 H   0  0  0  0  0  0  0  0  0  0  0  0
   57.5127  160.5946   -5.6617 H   0  0  0  0  0  0  0  0  0  0  0  0
   59.0434  159.7164   -5.8356 H   0  0  0  0  0  0  0  0  0  0  0  0
   57.6420  159.2332   -6.7891 H   0  0  0  0  0  0  0  0  0  0  0  0
   58.0163  157.6799   -4.8814 H   0  0  0  0  0  0  0  0  0  0  0  0
   52.4466  156.7414   -4.4446 H   0  0  0  0  0  0  0  0  0  0  0  0
   55.7949  158.3965   -5.6859 H   0  0  0  0  0  0  0  0  0  0  0  0
  1  2  1  0  0  0  0
  1  3  2  0  0  0  0
  2  4  2  0  0  0  0
  3 11  1  0  0  0  0
  3 15  1  0  0  0  0
  4 15  1  0  0  0  0
  4 16  1  0  0  0  0
  5  9  1  0  0  0  0
  5 12  1  0  0  0  0
  5 14  2  0  0  0  0
  6  7  1  0  0  0  0
  6  8  1  0  0  0  0
  7  9  1  0  0  0  0
  8 12  1  0  0  0  0
  9 13  1  0  0  0  0
 10 11  1  0  0  0  0
 11 13  1  0  0  0  0
  1 17  1  0  0  0  0
  2 18  1  0  0  0  0
  6 19  1  0  0  0  0
  6 20  1  0  0  0  0
  7 21  1  0  0  0  0
  7 22  1  0  0  0  0
  8 23  1  0  0  0  0
  8 24  1  0  0  0  0
  9 25  1  0  0  0  0
 10 26  1  0  0  0  0
 10 27  1  0  0  0  0
 10 28  1  0  0  0  0
 11 29  1  0  0  0  0
 12 30  1  0  0  0  0
 13 31  1  0  0  0  0
M  END
> <FRED Chemgauss4 score>
-7.532443

$$$$
C88803396	P138914308
  -OEChem-05122015073D

 28 29  0     0  0  0  0  0  0999 V2000
   54.1787  163.9347   -4.5742 C   0  0  0  0  0  0  0  0  0  0  0  0
   54.1099  164.9846   -3.6134 C   0  0  0  0  0  0  0  0  0  0  0  0
   55.6208  158.1971   -1.6894 C   0  0  0  0  0  0  0  0  0  0  0  0
   56.1389  159.4823   -1.7612 C   0  0  0  0  0  0  0  0  0  0  0  0
   54.8026  157.7457   -2.7205 C   0  0  0  0  0  0  0  0  0  0  0  0
   54.5189  158.5808   -3.7969 C   0  0  0  0  0  0  0  0  0  0  0  0
   55.2512  163.0994   -4.3519 C   0  0  0  0  0  0  0  0  0  0  0  0
   55.0647  159.8565   -3.8153 C   0  0  0  0  0  0  0  0  0  0  0  0
   55.1325  164.9116   -2.6931 C   0  0  0  0  0  0  0  0  0  0  0  0
   54.2539  156.3784   -2.6481 C   0  0  0  0  0  0  0  0  0  0  0  0
   55.6693  161.8872   -5.1329 C   0  0  0  0  0  0  0  0  0  0  0  0
   55.8496  160.2656   -2.8092 N   0  3  0  0  0  0  0  0  0  0  0  0
   53.6910  158.1381   -4.8507 N   0  0  0  0  0  0  0  0  0  0  0  0
   54.8270  160.7578   -4.8630 N   0  0  0  0  0  0  0  0  0  0  0  0
   53.1170  156.1999   -2.0735 O   0  5  0  0  0  0  0  0  0  0  0  0
   54.9323  155.4138   -3.1620 O   0  0  0  0  0  0  0  0  0  0  0  0
   56.1696  163.5816   -2.9894 S   0  0  0  0  0  0  0  0  0  0  0  0
   55.3777  166.1332   -1.2596 Br  0  0  0  0  0  0  0  0  0  0  0  0
   53.4748  163.8026   -5.3861 H   0  0  0  0  0  0  0  0  0  0  0  0
   53.3442  165.7504   -3.6064 H   0  0  0  0  0  0  0  0  0  0  0  0
   55.8553  157.5644   -0.8390 H   0  0  0  0  0  0  0  0  0  0  0  0
   56.7823  159.9155   -1.0081 H   0  0  0  0  0  0  0  0  0  0  0  0
   55.6291  162.0885   -6.2090 H   0  0  0  0  0  0  0  0  0  0  0  0
   56.6991  161.6015   -4.8938 H   0  0  0  0  0  0  0  0  0  0  0  0
   56.2391  161.2069   -2.8451 H   0  0  0  0  0  0  0  0  0  0  0  0
   53.3477  157.1994   -4.8388 H   0  0  0  0  0  0  0  0  0  0  0  0
   53.5396  158.7381   -5.6356 H   0  0  0  0  0  0  0  0  0  0  0  0
   54.0220  160.5906   -5.4431 H   0  0  0  0  0  0  0  0  0  0  0  0
  1  2  1  0  0  0  0
  1  7  2  0  0  0  0
  2  9  2  0  0  0  0
  3  4  2  0  0  0  0
  3  5  1  0  0  0  0
  4 12  1  0  0  0  0
  5  6  2  0  0  0  0
  5 10  1  0  0  0  0
  6  8  1  0  0  0  0
  6 13  1  0  0  0  0
  7 11  1  0  0  0  0
  7 17  1  0  0  0  0
  8 12  2  0  0  0  0
  8 14  1  0  0  0  0
  9 17  1  0  0  0  0
  9 18  1  0  0  0  0
 10 15  1  0  0  0  0
 10 16  2  0  0  0  0
 11 14  1  0  0  0  0
  1 19  1  0  0  0  0
  2 20  1  0  0  0  0
  3 21  1  0  0  0  0
  4 22  1  0  0  0  0
 11 23  1  0  0  0  0
 11 24  1  0  0  0  0
 12 25  1  0  0  0  0
 13 26  1  0  0  0  0
 13 27  1  0  0  0  0
 14 28  1  0  0  0  0
M  CHG  2  12   1  15  -1
M  END
> <FRED Chemgauss4 score>
-7.532407

$$$$
C97776773	P155157615
  -OEChem-05122015073D

 42 43  0     1  0  0  0  0  0999 V2000
   56.6716  158.9299   -4.2366 C   0  0  0  0  0  0  0  0  0  0  0  0
   54.6918  157.8685   -3.4551 C   0  0  0  0  0  0  0  0  0  0  0  0
   55.6945  159.4579   -2.1335 C   0  0  0  0  0  0  0  0  0  0  0  0
   55.6512  158.0086   -4.4449 C   0  0  0  0  0  0  0  0  0  0  0  0
   56.7010  159.6723   -3.0614 C   0  0  0  0  0  0  0  0  0  0  0  0
   56.7430  153.6084   -6.6261 C   0  0  0  0  0  0  0  0  0  0  0  0
   58.2291  153.9484   -6.6340 C   0  0  0  0  0  0  0  0  0  0  0  0
   55.9022  154.8803   -6.6808 C   0  0  0  0  0  0  0  0  0  0  0  0
   58.5504  154.9851   -5.5660 C   0  0  0  0  0  0  0  0  0  0  0  0
   56.3456  155.8671   -5.5984 C   0  0  2  0  0  0  0  0  0  0  0  0
   59.8477  161.2612   -2.0329 C   0  0  0  0  0  0  0  0  0  0  0  0
   58.4759  159.5342   -0.8133 C   0  0  0  0  0  0  0  0  0  0  0  0
   55.5905  157.1839   -5.7148 C   0  0  1  0  0  0  0  0  0  0  0  0
   58.8602  160.1120   -2.1669 C   0  0  0  0  0  0  0  0  0  0  0  0
   54.6872  158.5719   -2.3006 N   0  0  0  0  0  0  0  0  0  0  0  0
   53.5778  158.2036   -6.3275 N   0  0  0  0  0  0  0  0  0  0  0  0
   54.2224  156.9434   -6.1189 N   0  0  0  0  0  0  0  0  0  0  0  0
   57.7427  156.1505   -5.7313 O   0  0  0  0  0  0  0  0  0  0  0  0
   57.6837  160.5778   -2.8309 O   0  0  0  0  0  0  0  0  0  0  0  0
   57.4446  159.0709   -4.9876 H   0  0  0  0  0  0  0  0  0  0  0  0
   53.8716  157.1653   -3.5622 H   0  0  0  0  0  0  0  0  0  0  0  0
   55.6671  160.0099   -1.1992 H   0  0  0  0  0  0  0  0  0  0  0  0
   56.5004  152.9592   -7.4746 H   0  0  0  0  0  0  0  0  0  0  0  0
   56.5011  153.0504   -5.7133 H   0  0  0  0  0  0  0  0  0  0  0  0
   58.8276  153.0444   -6.4807 H   0  0  0  0  0  0  0  0  0  0  0  0
   58.4891  154.3558   -7.6188 H   0  0  0  0  0  0  0  0  0  0  0  0
   56.0305  155.3364   -7.6709 H   0  0  0  0  0  0  0  0  0  0  0  0
   54.8408  154.6335   -6.5671 H   0  0  0  0  0  0  0  0  0  0  0  0
   58.4024  154.5789   -4.5585 H   0  0  0  0  0  0  0  0  0  0  0  0
   59.5981  155.2913   -5.6478 H   0  0  0  0  0  0  0  0  0  0  0  0
   56.1647  155.4455   -4.6015 H   0  0  0  0  0  0  0  0  0  0  0  0
   59.4386  162.0663   -1.4149 H   0  0  0  0  0  0  0  0  0  0  0  0
   60.7808  160.9108   -1.5787 H   0  0  0  0  0  0  0  0  0  0  0  0
   60.1108  161.6717   -3.0140 H   0  0  0  0  0  0  0  0  0  0  0  0
   58.0341  160.2981   -0.1662 H   0  0  0  0  0  0  0  0  0  0  0  0
   59.3566  159.1180   -0.3126 H   0  0  0  0  0  0  0  0  0  0  0  0
   57.7598  158.7126   -0.9245 H   0  0  0  0  0  0  0  0  0  0  0  0
   56.0380  157.7606   -6.5356 H   0  0  0  0  0  0  0  0  0  0  0  0
   59.2981  159.3247   -2.7892 H   0  0  0  0  0  0  0  0  0  0  0  0
   54.2518  158.9553   -6.1848 H   0  0  0  0  0  0  0  0  0  0  0  0
   53.2860  158.2727   -7.3016 H   0  0  0  0  0  0  0  0  0  0  0  0
   53.7237  156.4371   -5.3836 H   0  0  0  0  0  0  0  0  0  0  0  0
  1  4  2  0  0  0  0
  1  5  1  0  0  0  0
  2  4  1  0  0  0  0
  2 15  2  0  0  0  0
  3  5  2  0  0  0  0
  3 15  1  0  0  0  0
  4 13  1  0  0  0  0
  5 19  1  0  0  0  0
  6  7  1  0  0  0  0
  6  8  1  0  0  0  0
  7  9  1  0  0  0  0
  8 10  1  0  0  0  0
  9 18  1  0  0  0  0
 10 13  1  0  0  0  0
 10 18  1  0  0  0  0
 11 14  1  0  0  0  0
 12 14  1  0  0  0  0
 13 17  1  0  0  0  0
 14 19  1  0  0  0  0
 16 17  1  0  0  0  0
  1 20  1  0  0  0  0
  2 21  1  0  0  0  0
  3 22  1  0  0  0  0
  6 23  1  0  0  0  0
  6 24  1  0  0  0  0
  7 25  1  0  0  0  0
  7 26  1  0  0  0  0
  8 27  1  0  0  0  0
  8 28  1  0  0  0  0
  9 29  1  0  0  0  0
  9 30  1  0  0  0  0
 10 31  1  0  0  0  0
 11 32  1  0  0  0  0
 11 33  1  0  0  0  0
 11 34  1  0  0  0  0
 12 35  1  0  0  0  0
 12 36  1  0  0  0  0
 12 37  1  0  0  0  0
 13 38  1  0  0  0  0
 14 39  1  0  0  0  0
 16 40  1  0  0  0  0
 16 41  1  0  0  0  0
 17 42  1  0  0  0  0
M  END
> <FRED Chemgauss4 score>
-7.526445

$$$$
C55153518	P83084771
  -OEChem-05122015073D

 45 47  0     1  0  0  0  0  0999 V2000
   58.5929  161.6398   -1.9480 C   0  0  0  0  0  0  0  0  0  0  0  0
   59.4646  161.2140   -2.9915 C   0  0  0  0  0  0  0  0  0  0  0  0
   60.2853  160.7997   -7.5266 C   0  0  0  0  0  0  0  0  0  0  0  0
   57.5823  162.4503   -2.4164 C   0  0  0  0  0  0  0  0  0  0  0  0
   59.2529  160.8237   -6.6210 C   0  0  0  0  0  0  0  0  0  0  0  0
   59.7981  161.4463   -5.4822 C   0  0  0  0  0  0  0  0  0  0  0  0
   59.0868  161.7152   -4.2179 C   0  0  0  0  0  0  0  0  0  0  0  0
   57.9322  157.8157   -6.6872 C   0  0  0  0  0  0  0  0  0  0  0  0
   53.5886  155.6044   -4.5414 C   0  0  0  0  0  0  0  0  0  0  0  0
   58.2189  154.2710   -5.2814 C   0  0  0  0  0  0  0  0  0  0  0  0
   58.6069  155.5116   -6.0784 C   0  0  0  0  0  0  0  0  0  0  0  0
   56.7493  153.9078   -5.4982 C   0  0  0  0  0  0  0  0  0  0  0  0
   56.1831  156.2144   -5.9879 C   0  0  0  0  0  0  0  0  0  0  0  0
   57.6373  156.6553   -5.7869 C   0  0  2  0  0  0  0  0  0  0  0  0
   57.8612  160.2975   -6.8224 C   0  0  0  0  0  0  0  0  0  0  0  0
   54.4664  154.6578   -5.3271 C   0  0  0  0  0  0  0  0  0  0  0  0
   61.0776  161.7925   -5.6466 N   0  0  0  0  0  0  0  0  0  0  0  0
   61.3450  161.3861   -6.8994 N   0  0  0  0  0  0  0  0  0  0  0  0
   55.8699  155.0371   -5.1652 N   0  0  1  0  0  0  0  0  0  0  0  0
   52.3500  155.7738   -5.1220 N   0  0  0  0  0  0  0  0  0  0  0  0
   57.6500  159.0475   -6.1282 N   0  0  0  0  0  0  0  0  0  0  0  0
   58.3844  157.6114   -7.8077 O   0  0  0  0  0  0  0  0  0  0  0  0
   53.9217  156.1280   -3.4817 O   0  0  0  0  0  0  0  0  0  0  0  0
   57.6867  162.6949   -4.1080 S   0  0  0  0  0  0  0  0  0  0  0  0
   58.7013  161.3648   -0.9069 H   0  0  0  0  0  0  0  0  0  0  0  0
   60.3238  160.5718   -2.8412 H   0  0  0  0  0  0  0  0  0  0  0  0
   60.3615  160.4274   -8.5383 H   0  0  0  0  0  0  0  0  0  0  0  0
   56.7872  162.9101   -1.8466 H   0  0  0  0  0  0  0  0  0  0  0  0
   58.8558  153.4293   -5.5755 H   0  0  0  0  0  0  0  0  0  0  0  0
   58.3998  154.4505   -4.2140 H   0  0  0  0  0  0  0  0  0  0  0  0
   59.6331  155.8089   -5.8314 H   0  0  0  0  0  0  0  0  0  0  0  0
   58.6018  155.2742   -7.1504 H   0  0  0  0  0  0  0  0  0  0  0  0
   56.5989  153.5887   -6.5380 H   0  0  0  0  0  0  0  0  0  0  0  0
   56.5117  153.0504   -4.8567 H   0  0  0  0  0  0  0  0  0  0  0  0
   55.5257  157.0475   -5.7066 H   0  0  0  0  0  0  0  0  0  0  0  0
   55.9915  156.0083   -7.0505 H   0  0  0  0  0  0  0  0  0  0  0  0
   57.7760  156.9993   -4.7541 H   0  0  0  0  0  0  0  0  0  0  0  0
   57.1199  161.0161   -6.4561 H   0  0  0  0  0  0  0  0  0  0  0  0
   57.6544  160.1297   -7.8845 H   0  0  0  0  0  0  0  0  0  0  0  0
   54.2260  154.6961   -6.3930 H   0  0  0  0  0  0  0  0  0  0  0  0
   54.3345  153.6396   -4.9511 H   0  0  0  0  0  0  0  0  0  0  0  0
   62.2756  161.5415   -7.2658 H   0  0  0  0  0  0  0  0  0  0  0  0
   52.1065  155.2920   -5.9810 H   0  0  0  0  0  0  0  0  0  0  0  0
   51.6393  156.3772   -4.7206 H   0  0  0  0  0  0  0  0  0  0  0  0
   57.2762  159.0758   -5.1843 H   0  0  0  0  0  0  0  0  0  0  0  0
  1  2  1  0  0  0  0
  1  4  2  0  0  0  0
  2  7  2  0  0  0  0
  3  5  2  0  0  0  0
  3 18  1  0  0  0  0
  4 24  1  0  0  0  0
  5  6  1  0  0  0  0
  5 15  1  0  0  0  0
  6  7  1  0  0  0  0
  6 17  2  0  0  0  0
  7 24  1  0  0  0  0
  8 14  1  0  0  0  0
  8 21  1  0  0  0  0
  8 22  2  0  0  0  0
  9 16  1  0  0  0  0
  9 20  1  0  0  0  0
  9 23  2  0  0  0  0
 10 11  1  0  0  0  0
 10 12  1  0  0  0  0
 11 14  1  0  0  0  0
 12 19  1  0  0  0  0
 13 14  1  0  0  0  0
 13 19  1  0  0  0  0
 15 21  1  0  0  0  0
 16 19  1  0  0  0  0
 17 18  1  0  0  0  0
  1 25  1  0  0  0  0
  2 26  1  0  0  0  0
  3 27  1  0  0  0  0
  4 28  1  0  0  0  0
 10 29  1  0  0  0  0
 10 30  1  0  0  0  0
 11 31  1  0  0  0  0
 11 32  1  0  0  0  0
 12 33  1  0  0  0  0
 12 34  1  0  0  0  0
 13 35  1  0  0  0  0
 13 36  1  0  0  0  0
 14 37  1  0  0  0  0
 15 38  1  0  0  0  0
 15 39  1  0  0  0  0
 16 40  1  0  0  0  0
 16 41  1  0  0  0  0
 18 42  1  0  0  0  0
 20 43  1  0  0  0  0
 20 44  1  0  0  0  0
 21 45  1  0  0  0  0
M  END
> <FRED Chemgauss4 score>
-7.526052

$$$$
C94238416	P147693620
  -OEChem-05122015073D

 34 34  0     1  0  0  0  0  0999 V2000
   53.5697  156.5603   -6.2657 C   0  0  0  0  0  0  0  0  0  0  0  0
   57.0278  155.1118   -6.5017 C   0  0  0  0  0  0  0  0  0  0  0  0
   53.9344  155.8564   -3.6161 C   0  0  0  0  0  0  0  0  0  0  0  0
   53.6310  154.2692   -7.2515 C   0  0  0  0  0  0  0  0  0  0  0  0
   54.7759  153.9611   -6.3140 C   0  0  0  0  0  0  0  0  0  0  0  0
   55.0231  156.3822   -5.8143 C   0  0  1  0  0  0  0  0  0  0  0  0
   57.4059  152.7938   -5.7208 C   0  0  0  0  0  0  0  0  0  0  0  0
   55.1018  156.5192   -4.2928 C   0  0  0  0  0  0  0  0  0  0  0  0
   57.6338  153.7796   -6.8637 C   0  0  2  0  0  0  0  0  0  0  0  0
   59.1156  153.9517   -7.1614 C   0  0  0  0  0  0  0  0  0  0  0  0
   52.9515  155.4843   -6.8605 N   0  0  0  0  0  0  0  0  0  0  0  0
   55.6530  155.1302   -6.2515 N   0  0  0  0  0  0  0  0  0  0  0  0
   56.9359  153.3198   -8.0604 N   0  0  0  0  0  0  0  0  0  0  0  0
   52.9689  157.6153   -6.0465 O   0  0  0  0  0  0  0  0  0  0  0  0
   57.7524  156.1090   -6.4442 O   0  0  0  0  0  0  0  0  0  0  0  0
   53.8755  154.6967   -3.2360 O   0  0  0  0  0  0  0  0  0  0  0  0
   52.9198  156.7483   -3.4783 O   0  0  0  0  0  0  0  0  0  0  0  0
   59.7761  154.4448   -6.0887 F   0  0  0  0  0  0  0  0  0  0  0  0
   59.3282  154.7997   -8.1928 F   0  0  0  0  0  0  0  0  0  0  0  0
   59.6932  152.7712   -7.4813 F   0  0  0  0  0  0  0  0  0  0  0  0
   53.9907  154.4179   -8.2753 H   0  0  0  0  0  0  0  0  0  0  0  0
   52.8962  153.4585   -7.2563 H   0  0  0  0  0  0  0  0  0  0  0  0
   54.4120  153.7677   -5.2980 H   0  0  0  0  0  0  0  0  0  0  0  0
   55.2979  153.0638   -6.6493 H   0  0  0  0  0  0  0  0  0  0  0  0
   55.5833  157.2130   -6.2612 H   0  0  0  0  0  0  0  0  0  0  0  0
   57.8365  151.8131   -5.9548 H   0  0  0  0  0  0  0  0  0  0  0  0
   57.8647  153.1485   -4.7908 H   0  0  0  0  0  0  0  0  0  0  0  0
   56.3377  152.6353   -5.5282 H   0  0  0  0  0  0  0  0  0  0  0  0
   56.0252  156.0528   -3.9449 H   0  0  0  0  0  0  0  0  0  0  0  0
   55.1058  157.5797   -4.0349 H   0  0  0  0  0  0  0  0  0  0  0  0
   51.9534  155.5477   -7.0361 H   0  0  0  0  0  0  0  0  0  0  0  0
   57.2447  153.6617   -8.9448 H   0  0  0  0  0  0  0  0  0  0  0  0
   56.0627  152.8522   -7.9443 H   0  0  0  0  0  0  0  0  0  0  0  0
   52.1390  156.3489   -3.0387 H   0  0  0  0  0  0  0  0  0  0  0  0
  1  6  1  0  0  0  0
  1 11  1  0  0  0  0
  1 14  2  0  0  0  0
  2  9  1  0  0  0  0
  2 12  1  0  0  0  0
  2 15  2  0  0  0  0
  3  8  1  0  0  0  0
  3 16  2  0  0  0  0
  3 17  1  0  0  0  0
  4  5  1  0  0  0  0
  4 11  1  0  0  0  0
  5 12  1  0  0  0  0
  6  8  1  0  0  0  0
  6 12  1  0  0  0  0
  7  9  1  0  0  0  0
  9 10  1  0  0  0  0
  9 13  1  0  0  0  0
 10 18  1  0  0  0  0
 10 19  1  0  0  0  0
 10 20  1  0  0  0  0
  4 21  1  0  0  0  0
  4 22  1  0  0  0  0
  5 23  1  0  0  0  0
  5 24  1  0  0  0  0
  6 25  1  0  0  0  0
  7 26  1  0  0  0  0
  7 27  1  0  0  0  0
  7 28  1  0  0  0  0
  8 29  1  0  0  0  0
  8 30  1  0  0  0  0
 11 31  1  0  0  0  0
 13 32  1  0  0  0  0
 13 33  1  0  0  0  0
 17 34  1  0  0  0  0
M  END
> <FRED Chemgauss4 score>
-7.524046

$$$$
C67820544	P104133783
  -OEChem-05122015073D

 43 44  0     1  0  0  0  0  0999 V2000
   56.7784  161.5616   -1.9278 C   0  0  0  0  0  0  0  0  0  0  0  0
   58.4784  159.2753   -1.3969 C   0  0  0  0  0  0  0  0  0  0  0  0
   54.1076  156.1842   -3.0723 C   0  0  0  0  0  0  0  0  0  0  0  0
   58.0121  161.6974   -1.0617 C   0  0  0  0  0  0  0  0  0  0  0  0
   56.3647  157.9072   -1.8680 C   0  0  0  0  0  0  0  0  0  0  0  0
   55.2513  159.7901   -2.8504 C   0  0  0  0  0  0  0  0  0  0  0  0
   56.9699  159.1734   -1.2725 C   0  0  2  0  0  0  0  0  0  0  0  0
   54.9851  158.3786   -2.3351 C   0  0  1  0  0  0  0  0  0  0  0  0
   58.3340  154.9179   -6.5995 C   0  0  0  0  0  0  0  0  0  0  0  0
   60.3497  160.9041   -1.4213 C   0  0  0  0  0  0  0  0  0  0  0  0
   56.9083  155.4349   -6.5693 C   0  0  0  0  0  0  0  0  0  0  0  0
   54.3784  155.4807   -5.5139 C   0  0  0  0  0  0  0  0  0  0  0  0
   53.4733  155.4966   -4.2796 C   0  0  2  0  0  0  0  0  0  0  0  0
   58.9285  160.6032   -1.3846 N   0  0  0  0  0  0  0  0  0  0  0  0
   56.3853  160.2443   -2.0643 N   0  0  0  0  0  0  0  0  0  0  0  0
   52.1946  156.1058   -4.5450 N   0  0  0  0  0  0  0  0  0  0  0  0
   54.4054  157.5165   -3.3228 N   0  0  0  0  0  0  0  0  0  0  0  0
   56.1666  162.5357   -2.3572 O   0  0  0  0  0  0  0  0  0  0  0  0
   59.2026  158.2820   -1.3868 O   0  0  0  0  0  0  0  0  0  0  0  0
   54.3036  155.6118   -2.0021 O   0  0  0  0  0  0  0  0  0  0  0  0
   55.9727  154.6390   -5.2448 S   0  0  0  0  0  0  0  0  0  0  0  0
   58.4958  162.6583   -1.2777 H   0  0  0  0  0  0  0  0  0  0  0  0
   57.7395  161.6446   -0.0003 H   0  0  0  0  0  0  0  0  0  0  0  0
   56.9597  157.4581   -2.6592 H   0  0  0  0  0  0  0  0  0  0  0  0
   56.2319  157.1729   -1.0710 H   0  0  0  0  0  0  0  0  0  0  0  0
   55.4755  159.8521   -3.9230 H   0  0  0  0  0  0  0  0  0  0  0  0
   54.4117  160.4620   -2.6259 H   0  0  0  0  0  0  0  0  0  0  0  0
   56.6958  159.2834   -0.2235 H   0  0  0  0  0  0  0  0  0  0  0  0
   54.2616  158.4028   -1.4843 H   0  0  0  0  0  0  0  0  0  0  0  0
   58.8515  155.1102   -5.6535 H   0  0  0  0  0  0  0  0  0  0  0  0
   58.3679  153.8422   -6.8028 H   0  0  0  0  0  0  0  0  0  0  0  0
   58.8965  155.4223   -7.3922 H   0  0  0  0  0  0  0  0  0  0  0  0
   60.6864  161.0019   -2.4567 H   0  0  0  0  0  0  0  0  0  0  0  0
   60.9182  160.1034   -0.9405 H   0  0  0  0  0  0  0  0  0  0  0  0
   60.5513  161.8414   -0.8957 H   0  0  0  0  0  0  0  0  0  0  0  0
   56.4112  155.2324   -7.5228 H   0  0  0  0  0  0  0  0  0  0  0  0
   56.9008  156.5166   -6.4050 H   0  0  0  0  0  0  0  0  0  0  0  0
   53.8800  154.9785   -6.3495 H   0  0  0  0  0  0  0  0  0  0  0  0
   54.5983  156.5065   -5.8287 H   0  0  0  0  0  0  0  0  0  0  0  0
   53.2524  154.4610   -3.9926 H   0  0  0  0  0  0  0  0  0  0  0  0
   51.6570  156.4678   -3.7754 H   0  0  0  0  0  0  0  0  0  0  0  0
   51.7718  155.9794   -5.4493 H   0  0  0  0  0  0  0  0  0  0  0  0
   54.2494  157.8969   -4.2519 H   0  0  0  0  0  0  0  0  0  0  0  0
  1  4  1  0  0  0  0
  1 15  1  0  0  0  0
  1 18  2  0  0  0  0
  2  7  1  0  0  0  0
  2 14  1  0  0  0  0
  2 19  2  0  0  0  0
  3 13  1  0  0  0  0
  3 17  1  0  0  0  0
  3 20  2  0  0  0  0
  4 14  1  0  0  0  0
  5  7  1  0  0  0  0
  5  8  1  0  0  0  0
  6  8  1  0  0  0  0
  6 15  1  0  0  0  0
  7 15  1  0  0  0  0
  8 17  1  0  0  0  0
  9 11  1  0  0  0  0
 10 14  1  0  0  0  0
 11 21  1  0  0  0  0
 12 13  1  0  0  0  0
 12 21  1  0  0  0  0
 13 16  1  0  0  0  0
  4 22  1  0  0  0  0
  4 23  1  0  0  0  0
  5 24  1  0  0  0  0
  5 25  1  0  0  0  0
  6 26  1  0  0  0  0
  6 27  1  0  0  0  0
  7 28  1  0  0  0  0
  8 29  1  0  0  0  0
  9 30  1  0  0  0  0
  9 31  1  0  0  0  0
  9 32  1  0  0  0  0
 10 33  1  0  0  0  0
 10 34  1  0  0  0  0
 10 35  1  0  0  0  0
 11 36  1  0  0  0  0
 11 37  1  0  0  0  0
 12 38  1  0  0  0  0
 12 39  1  0  0  0  0
 13 40  1  0  0  0  0
 16 41  1  0  0  0  0
 16 42  1  0  0  0  0
 17 43  1  0  0  0  0
M  END
> <FRED Chemgauss4 score>
-7.512497

$$$$
C93630036	P146642512
  -OEChem-05122015073D

 39 40  0     1  0  0  0  0  0999 V2000
   57.8138  153.6294   -7.0711 C   0  0  0  0  0  0  0  0  0  0  0  0
   55.9779  154.4776   -6.5541 C   0  0  0  0  0  0  0  0  0  0  0  0
   54.3862  160.1224   -3.1507 C   0  0  0  0  0  0  0  0  0  0  0  0
   57.0100  160.0156   -4.9273 C   0  0  0  0  0  0  0  0  0  0  0  0
   56.7654  158.6214   -4.3496 C   0  0  0  0  0  0  0  0  0  0  0  0
   55.6306  160.6197   -5.2225 C   0  0  0  0  0  0  0  0  0  0  0  0
   55.3101  158.3034   -4.6956 C   0  0  2  0  0  0  0  0  0  0  0  0
   54.6180  159.6653   -4.5874 C   0  0  1  0  0  0  0  0  0  0  0  0
   59.2635  153.4462   -7.3017 C   0  0  0  0  0  0  0  0  0  0  0  0
   52.7051  160.9915   -5.4934 C   0  0  0  0  0  0  0  0  0  0  0  0
   54.7228  157.1974   -3.8291 C   0  0  0  0  0  0  0  0  0  0  0  0
   55.1893  155.8254   -4.3014 C   0  0  0  0  0  0  0  0  0  0  0  0
   57.2559  154.7765   -6.5836 N   0  0  0  0  0  0  0  0  0  0  0  0
   55.7943  153.2079   -7.0057 N   0  0  0  0  0  0  0  0  0  0  0  0
   56.9614  152.6396   -7.3452 N   0  0  0  0  0  0  0  0  0  0  0  0
   53.3633  159.6625   -5.3857 N   0  3  0  0  0  0  0  0  0  0  0  0
   53.5664  159.4268   -2.4893 O   0  5  0  0  0  0  0  0  0  0  0  0
   55.0469  161.1421   -2.8061 O   0  0  0  0  0  0  0  0  0  0  0  0
   54.6677  155.5327   -6.0154 S   0  0  0  0  0  0  0  0  0  0  0  0
   57.5709  160.6330   -4.2175 H   0  0  0  0  0  0  0  0  0  0  0  0
   57.6012  159.9584   -5.8481 H   0  0  0  0  0  0  0  0  0  0  0  0
   57.4567  157.8830   -4.7687 H   0  0  0  0  0  0  0  0  0  0  0  0
   56.9214  158.6362   -3.2642 H   0  0  0  0  0  0  0  0  0  0  0  0
   55.5619  161.6422   -4.8337 H   0  0  0  0  0  0  0  0  0  0  0  0
   55.4973  160.6799   -6.3103 H   0  0  0  0  0  0  0  0  0  0  0  0
   55.2802  157.9610   -5.7404 H   0  0  0  0  0  0  0  0  0  0  0  0
   59.7573  153.0422   -6.4042 H   0  0  0  0  0  0  0  0  0  0  0  0
   59.4622  152.7549   -8.1368 H   0  0  0  0  0  0  0  0  0  0  0  0
   59.7607  154.3947   -7.5629 H   0  0  0  0  0  0  0  0  0  0  0  0
   52.5000  161.3455   -4.4815 H   0  0  0  0  0  0  0  0  0  0  0  0
   53.3913  161.6631   -6.0129 H   0  0  0  0  0  0  0  0  0  0  0  0
   51.7802  160.8613   -6.0586 H   0  0  0  0  0  0  0  0  0  0  0  0
   53.6292  157.2645   -3.8684 H   0  0  0  0  0  0  0  0  0  0  0  0
   55.0263  157.3680   -2.7894 H   0  0  0  0  0  0  0  0  0  0  0  0
   56.2804  155.7502   -4.2535 H   0  0  0  0  0  0  0  0  0  0  0  0
   54.7678  155.0356   -3.6714 H   0  0  0  0  0  0  0  0  0  0  0  0
   57.0314  151.6917   -7.7050 H   0  0  0  0  0  0  0  0  0  0  0  0
   53.5661  159.3093   -6.3309 H   0  0  0  0  0  0  0  0  0  0  0  0
   52.7021  158.9912   -4.9717 H   0  0  0  0  0  0  0  0  0  0  0  0
  1  9  1  0  0  0  0
  1 13  2  0  0  0  0
  1 15  1  0  0  0  0
  2 13  1  0  0  0  0
  2 14  2  0  0  0  0
  2 19  1  0  0  0  0
  3  8  1  0  0  0  0
  3 17  1  0  0  0  0
  3 18  2  0  0  0  0
  4  5  1  0  0  0  0
  4  6  1  0  0  0  0
  5  7  1  0  0  0  0
  6  8  1  0  0  0  0
  7  8  1  0  0  0  0
  7 11  1  0  0  0  0
  8 16  1  0  0  0  0
 10 16  1  0  0  0  0
 11 12  1  0  0  0  0
 12 19  1  0  0  0  0
 14 15  1  0  0  0  0
  4 20  1  0  0  0  0
  4 21  1  0  0  0  0
  5 22  1  0  0  0  0
  5 23  1  0  0  0  0
  6 24  1  0  0  0  0
  6 25  1  0  0  0  0
  7 26  1  0  0  0  0
  9 27  1  0  0  0  0
  9 28  1  0  0  0  0
  9 29  1  0  0  0  0
 10 30  1  0  0  0  0
 10 31  1  0  0  0  0
 10 32  1  0  0  0  0
 11 33  1  0  0  0  0
 11 34  1  0  0  0  0
 12 35  1  0  0  0  0
 12 36  1  0  0  0  0
 15 37  1  0  0  0  0
 16 38  1  0  0  0  0
 16 39  1  0  0  0  0
M  CHG  2  16   1  17  -1
M  END
> <FRED Chemgauss4 score>
-7.495956

$$$$
C63132327	P96937982
  -OEChem-05122015073D

 38 39  0     0  0  0  0  0  0999 V2000
   54.3753  154.9628   -4.9777 C   0  0  0  0  0  0  0  0  0  0  0  0
   55.3562  154.6570   -5.9210 C   0  0  0  0  0  0  0  0  0  0  0  0
   55.8052  156.6724   -4.0450 C   0  0  0  0  0  0  0  0  0  0  0  0
   61.7287  162.7917   -4.5207 C   0  0  0  0  0  0  0  0  0  0  0  0
   62.0440  162.8323   -5.8627 C   0  0  0  0  0  0  0  0  0  0  0  0
   56.7862  156.3665   -4.9883 C   0  0  0  0  0  0  0  0  0  0  0  0
   54.5997  155.9706   -4.0398 C   0  0  0  0  0  0  0  0  0  0  0  0
   56.5617  155.3587   -5.9262 C   0  0  0  0  0  0  0  0  0  0  0  0
   60.1385  161.4819   -5.2727 C   0  0  0  0  0  0  0  0  0  0  0  0
   58.0347  157.1182   -4.9678 C   0  0  0  0  0  0  0  0  0  0  0  0
   57.5564  155.7061   -8.1735 C   0  0  0  0  0  0  0  0  0  0  0  0
   58.5499  154.0356   -6.6017 C   0  0  0  0  0  0  0  0  0  0  0  0
   58.9364  160.5703   -5.3050 C   0  0  0  0  0  0  0  0  0  0  0  0
   59.1163  159.3171   -4.4517 C   0  0  0  0  0  0  0  0  0  0  0  0
   60.6361  162.0182   -4.1805 N   0  0  0  0  0  0  0  0  0  0  0  0
   53.6076  156.2796   -3.0861 N   0  0  0  0  0  0  0  0  0  0  0  0
   57.9708  158.4377   -4.5095 N   0  0  0  0  0  0  0  0  0  0  0  0
   57.5414  155.0341   -6.8907 N   0  0  0  0  0  0  0  0  0  0  0  0
   59.0894  156.5951   -5.3641 O   0  0  0  0  0  0  0  0  0  0  0  0
   60.9352  161.8648   -6.7436 S   0  0  0  0  0  0  0  0  0  0  0  0
   53.4393  154.4100   -4.9827 H   0  0  0  0  0  0  0  0  0  0  0  0
   55.1696  153.8701   -6.6475 H   0  0  0  0  0  0  0  0  0  0  0  0
   55.9788  157.4582   -3.3128 H   0  0  0  0  0  0  0  0  0  0  0  0
   62.2688  163.3125   -3.7414 H   0  0  0  0  0  0  0  0  0  0  0  0
   62.8477  163.3648   -6.3511 H   0  0  0  0  0  0  0  0  0  0  0  0
   58.3790  155.3282   -8.7861 H   0  0  0  0  0  0  0  0  0  0  0  0
   57.6867  156.7828   -8.0346 H   0  0  0  0  0  0  0  0  0  0  0  0
   56.6152  155.5324   -8.7022 H   0  0  0  0  0  0  0  0  0  0  0  0
   59.2181  153.9174   -7.4587 H   0  0  0  0  0  0  0  0  0  0  0  0
   58.0781  153.0727   -6.3880 H   0  0  0  0  0  0  0  0  0  0  0  0
   59.1417  154.3364   -5.7330 H   0  0  0  0  0  0  0  0  0  0  0  0
   58.7503  160.2766   -6.3459 H   0  0  0  0  0  0  0  0  0  0  0  0
   58.0438  161.1217   -4.9828 H   0  0  0  0  0  0  0  0  0  0  0  0
   59.9748  158.7412   -4.8112 H   0  0  0  0  0  0  0  0  0  0  0  0
   59.2887  159.5662   -3.3995 H   0  0  0  0  0  0  0  0  0  0  0  0
   52.7300  155.8016   -3.1227 H   0  0  0  0  0  0  0  0  0  0  0  0
   53.7615  157.0353   -2.4496 H   0  0  0  0  0  0  0  0  0  0  0  0
   57.0714  158.8342   -4.2574 H   0  0  0  0  0  0  0  0  0  0  0  0
  1  2  2  0  0  0  0
  1  7  1  0  0  0  0
  2  8  1  0  0  0  0
  3  6  1  0  0  0  0
  3  7  2  0  0  0  0
  4  5  2  0  0  0  0
  4 15  1  0  0  0  0
  5 20  1  0  0  0  0
  6  8  2  0  0  0  0
  6 10  1  0  0  0  0
  7 16  1  0  0  0  0
  8 18  1  0  0  0  0
  9 13  1  0  0  0  0
  9 15  2  0  0  0  0
  9 20  1  0  0  0  0
 10 17  1  0  0  0  0
 10 19  2  0  0  0  0
 11 18  1  0  0  0  0
 12 18  1  0  0  0  0
 13 14  1  0  0  0  0
 14 17  1  0  0  0  0
  1 21  1  0  0  0  0
  2 22  1  0  0  0  0
  3 23  1  0  0  0  0
  4 24  1  0  0  0  0
  5 25  1  0  0  0  0
 11 26  1  0  0  0  0
 11 27  1  0  0  0  0
 11 28  1  0  0  0  0
 12 29  1  0  0  0  0
 12 30  1  0  0  0  0
 12 31  1  0  0  0  0
 13 32  1  0  0  0  0
 13 33  1  0  0  0  0
 14 34  1  0  0  0  0
 14 35  1  0  0  0  0
 16 36  1  0  0  0  0
 16 37  1  0  0  0  0
 17 38  1  0  0  0  0
M  END
> <FRED Chemgauss4 score>
-7.490774

$$$$
C37787742	P56188607
  -OEChem-05122015073D

 39 40  0     1  0  0  0  0  0999 V2000
   61.0102  161.0056   -7.7868 C   0  0  0  0  0  0  0  0  0  0  0  0
   56.4846  158.8961   -3.4901 C   0  0  0  0  0  0  0  0  0  0  0  0
   56.6020  156.7435   -4.5807 C   0  0  0  0  0  0  0  0  0  0  0  0
   59.9396  160.2045   -7.3898 C   0  0  0  0  0  0  0  0  0  0  0  0
   55.3021  158.5115   -2.8582 C   0  0  0  0  0  0  0  0  0  0  0  0
   55.4195  156.3588   -3.9487 C   0  0  0  0  0  0  0  0  0  0  0  0
   61.4415  162.0492   -6.9680 C   0  0  0  0  0  0  0  0  0  0  0  0
   57.1346  158.0121   -4.3514 C   0  0  0  0  0  0  0  0  0  0  0  0
   59.7315  161.4907   -5.3553 C   0  0  0  0  0  0  0  0  0  0  0  0
   59.3002  160.4470   -6.1741 C   0  0  0  0  0  0  0  0  0  0  0  0
   54.7696  157.2429   -3.0874 C   0  0  0  0  0  0  0  0  0  0  0  0
   60.8021  162.2918   -5.7523 C   0  0  0  0  0  0  0  0  0  0  0  0
   59.0416  161.7466   -4.0516 C   0  0  0  0  0  0  0  0  0  0  0  0
   58.9882  157.3333   -5.9348 C   0  0  0  0  0  0  0  0  0  0  0  0
   58.3992  158.4229   -5.0266 C   0  0  1  0  0  0  0  0  0  0  0  0
   62.6521  164.2104   -5.7124 N   0  0  0  0  0  0  0  0  0  0  0  0
   58.2420  159.6433   -5.7998 N   0  0  0  0  0  0  0  0  0  0  0  0
   60.3235  164.6160   -4.6835 O   0  0  0  0  0  0  0  0  0  0  0  0
   61.9261  163.0519   -3.5289 O   0  0  0  0  0  0  0  0  0  0  0  0
   53.6164  156.8673   -2.4696 O   0  0  0  0  0  0  0  0  0  0  0  0
   61.3729  163.6108   -4.7529 S   0  0  0  0  0  0  0  0  0  0  0  0
   61.5079  160.8161   -8.7334 H   0  0  0  0  0  0  0  0  0  0  0  0
   56.8924  159.8864   -3.3057 H   0  0  0  0  0  0  0  0  0  0  0  0
   57.1016  156.0481   -5.2503 H   0  0  0  0  0  0  0  0  0  0  0  0
   59.6120  159.3944   -8.0362 H   0  0  0  0  0  0  0  0  0  0  0  0
   54.8006  159.2046   -2.1880 H   0  0  0  0  0  0  0  0  0  0  0  0
   55.0100  155.3693   -4.1311 H   0  0  0  0  0  0  0  0  0  0  0  0
   62.2770  162.6659   -7.2886 H   0  0  0  0  0  0  0  0  0  0  0  0
   59.5212  161.1714   -3.2528 H   0  0  0  0  0  0  0  0  0  0  0  0
   59.0771  162.8101   -3.7904 H   0  0  0  0  0  0  0  0  0  0  0  0
   57.9844  161.4629   -4.1043 H   0  0  0  0  0  0  0  0  0  0  0  0
   58.2686  157.0436   -6.7084 H   0  0  0  0  0  0  0  0  0  0  0  0
   59.9002  157.6810   -6.4330 H   0  0  0  0  0  0  0  0  0  0  0  0
   59.2544  156.4344   -5.3674 H   0  0  0  0  0  0  0  0  0  0  0  0
   59.1715  158.6657   -4.2755 H   0  0  0  0  0  0  0  0  0  0  0  0
   62.5201  165.1161   -6.1788 H   0  0  0  0  0  0  0  0  0  0  0  0
   63.6135  164.0456   -5.3902 H   0  0  0  0  0  0  0  0  0  0  0  0
   57.3067  159.9069   -6.0732 H   0  0  0  0  0  0  0  0  0  0  0  0
   53.3752  155.9635   -2.7282 H   0  0  0  0  0  0  0  0  0  0  0  0
  1  4  1  0  0  0  0
  1  7  2  0  0  0  0
  2  5  2  0  0  0  0
  2  8  1  0  0  0  0
  3  6  1  0  0  0  0
  3  8  2  0  0  0  0
  4 10  2  0  0  0  0
  5 11  1  0  0  0  0
  6 11  2  0  0  0  0
  7 12  1  0  0  0  0
  8 15  1  0  0  0  0
  9 10  1  0  0  0  0
  9 12  2  0  0  0  0
  9 13  1  0  0  0  0
 10 17  1  0  0  0  0
 11 20  1  0  0  0  0
 12 21  1  0  0  0  0
 14 15  1  0  0  0  0
 15 17  1  0  0  0  0
 16 21  1  0  0  0  0
 18 21  2  0  0  0  0
 19 21  2  0  0  0  0
  1 22  1  0  0  0  0
  2 23  1  0  0  0  0
  3 24  1  0  0  0  0
  4 25  1  0  0  0  0
  5 26  1  0  0  0  0
  6 27  1  0  0  0  0
  7 28  1  0  0  0  0
 13 29  1  0  0  0  0
 13 30  1  0  0  0  0
 13 31  1  0  0  0  0
 14 32  1  0  0  0  0
 14 33  1  0  0  0  0
 14 34  1  0  0  0  0
 15 35  1  0  0  0  0
 16 36  1  0  0  0  0
 16 37  1  0  0  0  0
 17 38  1  0  0  0  0
 20 39  1  0  0  0  0
M  END
> <FRED Chemgauss4 score>
-7.489424

$$$$
C35354207	P52456403
  -OEChem-05122015073D

 38 40  0     0  0  0  0  0  0999 V2000
   56.2761  154.4265   -6.3631 C   0  0  0  0  0  0  0  0  0  0  0  0
   55.3391  155.4100   -6.0389 C   0  0  0  0  0  0  0  0  0  0  0  0
   58.1981  160.1911   -3.8310 C   0  0  0  0  0  0  0  0  0  0  0  0
   56.5732  161.8576   -4.4785 C   0  0  0  0  0  0  0  0  0  0  0  0
   57.2009  159.2159   -3.8383 C   0  0  0  0  0  0  0  0  0  0  0  0
   55.5759  160.8824   -4.4859 C   0  0  0  0  0  0  0  0  0  0  0  0
   56.9320  157.1697   -6.5759 C   0  0  0  0  0  0  0  0  0  0  0  0
   57.5257  154.8304   -6.8020 C   0  0  0  0  0  0  0  0  0  0  0  0
   57.8504  156.1880   -6.9070 C   0  0  0  0  0  0  0  0  0  0  0  0
   57.8842  161.5120   -4.1510 C   0  0  0  0  0  0  0  0  0  0  0  0
   55.6646  156.7717   -6.1447 C   0  0  0  0  0  0  0  0  0  0  0  0
   55.8898  159.5615   -4.1658 C   0  0  0  0  0  0  0  0  0  0  0  0
   58.6957  153.9729   -7.1678 C   0  0  0  0  0  0  0  0  0  0  0  0
   59.2680  156.3641   -7.3514 C   0  0  0  0  0  0  0  0  0  0  0  0
   59.5711  154.9757   -7.9346 C   0  0  0  0  0  0  0  0  0  0  0  0
   58.5921  163.8403   -4.1740 N   0  0  0  0  0  0  0  0  0  0  0  0
   58.8923  162.4985   -4.1438 N   0  0  0  0  0  0  0  0  0  0  0  0
   54.6918  157.7594   -5.8002 N   0  0  0  0  0  0  0  0  0  0  0  0
   53.3629  159.0126   -3.9668 O   0  0  0  0  0  0  0  0  0  0  0  0
   55.0279  157.2707   -3.2644 O   0  0  0  0  0  0  0  0  0  0  0  0
   54.6236  158.3248   -4.1747 S   0  0  0  0  0  0  0  0  0  0  0  0
   56.0267  153.3750   -6.2700 H   0  0  0  0  0  0  0  0  0  0  0  0
   54.3520  155.1085   -5.6957 H   0  0  0  0  0  0  0  0  0  0  0  0
   59.2164  159.9108   -3.5740 H   0  0  0  0  0  0  0  0  0  0  0  0
   56.3179  162.8839   -4.7305 H   0  0  0  0  0  0  0  0  0  0  0  0
   57.4568  158.1901   -3.5872 H   0  0  0  0  0  0  0  0  0  0  0  0
   54.5578  161.1631   -4.7424 H   0  0  0  0  0  0  0  0  0  0  0  0
   57.1957  158.2204   -6.6491 H   0  0  0  0  0  0  0  0  0  0  0  0
   59.2003  153.6182   -6.2633 H   0  0  0  0  0  0  0  0  0  0  0  0
   58.4140  153.1254   -7.7988 H   0  0  0  0  0  0  0  0  0  0  0  0
   59.3773  157.1468   -8.1072 H   0  0  0  0  0  0  0  0  0  0  0  0
   59.9089  156.5804   -6.4906 H   0  0  0  0  0  0  0  0  0  0  0  0
   60.6353  154.7248   -7.8847 H   0  0  0  0  0  0  0  0  0  0  0  0
   59.2860  154.9624   -8.9959 H   0  0  0  0  0  0  0  0  0  0  0  0
   59.2217  164.2935   -4.8346 H   0  0  0  0  0  0  0  0  0  0  0  0
   58.8062  164.2408   -3.2616 H   0  0  0  0  0  0  0  0  0  0  0  0
   59.8314  162.2159   -3.9024 H   0  0  0  0  0  0  0  0  0  0  0  0
   54.5113  158.4715   -6.5259 H   0  0  0  0  0  0  0  0  0  0  0  0
  1  2  2  0  0  0  0
  1  8  1  0  0  0  0
  2 11  1  0  0  0  0
  3  5  1  0  0  0  0
  3 10  2  0  0  0  0
  4  6  2  0  0  0  0
  4 10  1  0  0  0  0
  5 12  2  0  0  0  0
  6 12  1  0  0  0  0
  7  9  1  0  0  0  0
  7 11  2  0  0  0  0
  8  9  2  0  0  0  0
  8 13  1  0  0  0  0
  9 14  1  0  0  0  0
 10 17  1  0  0  0  0
 11 18  1  0  0  0  0
 12 21  1  0  0  0  0
 13 15  1  0  0  0  0
 14 15  1  0  0  0  0
 16 17  1  0  0  0  0
 18 21  1  0  0  0  0
 19 21  2  0  0  0  0
 20 21  2  0  0  0  0
  1 22  1  0  0  0  0
  2 23  1  0  0  0  0
  3 24  1  0  0  0  0
  4 25  1  0  0  0  0
  5 26  1  0  0  0  0
  6 27  1  0  0  0  0
  7 28  1  0  0  0  0
 13 29  1  0  0  0  0
 13 30  1  0  0  0  0
 14 31  1  0  0  0  0
 14 32  1  0  0  0  0
 15 33  1  0  0  0  0
 15 34  1  0  0  0  0
 16 35  1  0  0  0  0
 16 36  1  0  0  0  0
 17 37  1  0  0  0  0
 18 38  1  0  0  0  0
M  END
> <FRED Chemgauss4 score>
-7.485012

$$$$
C80540843	P125773190
  -OEChem-05122015073D

 34 35  0     0  0  0  0  0  0999 V2000
   60.5115  155.1468   -7.7282 C   0  0  0  0  0  0  0  0  0  0  0  0
   60.0856  156.2575   -8.4566 C   0  0  0  0  0  0  0  0  0  0  0  0
   59.0545  155.7817   -5.9085 C   0  0  0  0  0  0  0  0  0  0  0  0
   54.0734  155.4764   -2.9437 C   0  0  0  0  0  0  0  0  0  0  0  0
   59.9959  154.9088   -6.4541 C   0  0  0  0  0  0  0  0  0  0  0  0
   58.6287  156.8924   -6.6369 C   0  0  0  0  0  0  0  0  0  0  0  0
   59.1443  157.1303   -7.9110 C   0  0  0  0  0  0  0  0  0  0  0  0
   53.3769  156.3963   -4.6832 C   0  0  0  0  0  0  0  0  0  0  0  0
   53.1747  157.0104   -6.0455 C   0  0  0  0  0  0  0  0  0  0  0  0
   53.9771  156.3264   -7.1604 C   0  0  0  0  0  0  0  0  0  0  0  0
   55.4881  156.3155   -6.9370 C   0  0  0  0  0  0  0  0  0  0  0  0
   54.4700  155.8596   -4.1929 N   0  0  0  0  0  0  0  0  0  0  0  0
   52.8035  155.7423   -2.6303 N   0  0  0  0  0  0  0  0  0  0  0  0
   52.3807  156.3304   -3.7597 N   0  0  0  0  0  0  0  0  0  0  0  0
   60.4262  153.7856   -5.7181 N   0  0  0  0  0  0  0  0  0  0  0  0
   56.0453  157.6376   -6.8583 N   0  0  0  0  0  0  0  0  0  0  0  0
   57.1844  157.4890   -4.5469 O   0  0  0  0  0  0  0  0  0  0  0  0
   57.8883  159.3225   -6.1176 O   0  0  0  0  0  0  0  0  0  0  0  0
   57.4341  157.9632   -5.8947 S   0  0  0  0  0  0  0  0  0  0  0  0
   58.6504  158.4901   -8.8540 Cl  0  0  0  0  0  0  0  0  0  0  0  0
   61.2451  154.4728   -8.1628 H   0  0  0  0  0  0  0  0  0  0  0  0
   60.4976  156.4279   -9.4483 H   0  0  0  0  0  0  0  0  0  0  0  0
   58.6540  155.5935   -4.9147 H   0  0  0  0  0  0  0  0  0  0  0  0
   54.7304  154.9880   -2.2397 H   0  0  0  0  0  0  0  0  0  0  0  0
   53.4079  158.0818   -6.0155 H   0  0  0  0  0  0  0  0  0  0  0  0
   52.1061  156.9517   -6.2904 H   0  0  0  0  0  0  0  0  0  0  0  0
   53.7609  156.8450   -8.1032 H   0  0  0  0  0  0  0  0  0  0  0  0
   53.6338  155.2923   -7.2853 H   0  0  0  0  0  0  0  0  0  0  0  0
   55.9831  155.8118   -7.7734 H   0  0  0  0  0  0  0  0  0  0  0  0
   55.7567  155.7826   -6.0201 H   0  0  0  0  0  0  0  0  0  0  0  0
   51.4217  156.6520   -3.8211 H   0  0  0  0  0  0  0  0  0  0  0  0
   61.0654  153.1419   -6.1390 H   0  0  0  0  0  0  0  0  0  0  0  0
   60.0144  153.6000   -4.8258 H   0  0  0  0  0  0  0  0  0  0  0  0
   55.8755  158.2824   -7.6594 H   0  0  0  0  0  0  0  0  0  0  0  0
  1  2  1  0  0  0  0
  1  5  2  0  0  0  0
  2  7  2  0  0  0  0
  3  5  1  0  0  0  0
  3  6  2  0  0  0  0
  4 12  1  0  0  0  0
  4 13  2  0  0  0  0
  5 15  1  0  0  0  0
  6  7  1  0  0  0  0
  6 19  1  0  0  0  0
  7 20  1  0  0  0  0
  8  9  1  0  0  0  0
  8 12  2  0  0  0  0
  8 14  1  0  0  0  0
  9 10  1  0  0  0  0
 10 11  1  0  0  0  0
 11 16  1  0  0  0  0
 13 14  1  0  0  0  0
 16 19  1  0  0  0  0
 17 19  2  0  0  0  0
 18 19  2  0  0  0  0
  1 21  1  0  0  0  0
  2 22  1  0  0  0  0
  3 23  1  0  0  0  0
  4 24  1  0  0  0  0
  9 25  1  0  0  0  0
  9 26  1  0  0  0  0
 10 27  1  0  0  0  0
 10 28  1  0  0  0  0
 11 29  1  0  0  0  0
 11 30  1  0  0  0  0
 14 31  1  0  0  0  0
 15 32  1  0  0  0  0
 15 33  1  0  0  0  0
 16 34  1  0  0  0  0
M  END
> <FRED Chemgauss4 score>
-7.481318

$$$$
C85378026	P133586410
  -OEChem-05122015073D

 36 38  0     0  0  0  0  0  0999 V2000
   56.1902  155.9639   -6.4632 C   0  0  0  0  0  0  0  0  0  0  0  0
   54.8982  155.4378   -6.5527 C   0  0  0  0  0  0  0  0  0  0  0  0
   54.0384  164.8407   -3.8660 C   0  0  0  0  0  0  0  0  0  0  0  0
   54.1785  163.4798   -4.2639 C   0  0  0  0  0  0  0  0  0  0  0  0
   54.1693  156.7499   -4.6437 C   0  0  0  0  0  0  0  0  0  0  0  0
   57.3879  158.3734   -4.0390 C   0  0  0  0  0  0  0  0  0  0  0  0
   55.4645  157.2939   -4.5338 C   0  0  0  0  0  0  0  0  0  0  0  0
   56.4430  156.8892   -5.4442 C   0  0  0  0  0  0  0  0  0  0  0  0
   53.9018  155.8234   -5.6581 C   0  0  0  0  0  0  0  0  0  0  0  0
   56.0749  158.2305   -3.6534 C   0  0  0  0  0  0  0  0  0  0  0  0
   54.9442  165.1899   -2.8886 C   0  0  0  0  0  0  0  0  0  0  0  0
   55.1864  162.8406   -3.5756 C   0  0  0  0  0  0  0  0  0  0  0  0
   55.1183  166.4976   -2.2197 C   0  0  0  0  0  0  0  0  0  0  0  0
   55.6470  161.4172   -3.7014 C   0  0  0  0  0  0  0  0  0  0  0  0
   57.6003  157.5606   -5.1201 N   0  0  0  0  0  0  0  0  0  0  0  0
   52.6059  155.2737   -5.7745 N   0  0  0  0  0  0  0  0  0  0  0  0
   54.7152  160.4788   -3.0598 N   0  0  0  0  0  0  0  0  0  0  0  0
   54.1810  158.2634   -1.8584 O   0  0  0  0  0  0  0  0  0  0  0  0
   56.3546  159.4312   -1.3723 O   0  0  0  0  0  0  0  0  0  0  0  0
   55.9582  163.8800   -2.4547 S   0  0  0  0  0  0  0  0  0  0  0  0
   55.3292  159.0399   -2.3494 S   0  0  0  0  0  0  0  0  0  0  0  0
   56.9653  155.6632   -7.1601 H   0  0  0  0  0  0  0  0  0  0  0  0
   54.6798  154.7168   -7.3376 H   0  0  0  0  0  0  0  0  0  0  0  0
   53.3093  165.5259   -4.2795 H   0  0  0  0  0  0  0  0  0  0  0  0
   53.5697  162.9983   -5.0186 H   0  0  0  0  0  0  0  0  0  0  0  0
   53.3883  157.0471   -3.9485 H   0  0  0  0  0  0  0  0  0  0  0  0
   58.1909  158.9794   -3.6431 H   0  0  0  0  0  0  0  0  0  0  0  0
   54.4913  166.5652   -1.3169 H   0  0  0  0  0  0  0  0  0  0  0  0
   56.1645  166.6685   -1.9178 H   0  0  0  0  0  0  0  0  0  0  0  0
   54.8486  167.3367   -2.8818 H   0  0  0  0  0  0  0  0  0  0  0  0
   55.7395  161.1331   -4.7554 H   0  0  0  0  0  0  0  0  0  0  0  0
   56.6307  161.2802   -3.2402 H   0  0  0  0  0  0  0  0  0  0  0  0
   58.4794  157.4663   -5.6098 H   0  0  0  0  0  0  0  0  0  0  0  0
   52.4091  154.6491   -6.5289 H   0  0  0  0  0  0  0  0  0  0  0  0
   51.8866  155.5914   -5.1584 H   0  0  0  0  0  0  0  0  0  0  0  0
   53.8524  160.8884   -2.6814 H   0  0  0  0  0  0  0  0  0  0  0  0
  1  2  1  0  0  0  0
  1  8  2  0  0  0  0
  2  9  2  0  0  0  0
  3  4  1  0  0  0  0
  3 11  2  0  0  0  0
  4 12  2  0  0  0  0
  5  7  2  0  0  0  0
  5  9  1  0  0  0  0
  6 10  2  0  0  0  0
  6 15  1  0  0  0  0
  7  8  1  0  0  0  0
  7 10  1  0  0  0  0
  8 15  1  0  0  0  0
  9 16  1  0  0  0  0
 10 21  1  0  0  0  0
 11 13  1  0  0  0  0
 11 20  1  0  0  0  0
 12 14  1  0  0  0  0
 12 20  1  0  0  0  0
 14 17  1  0  0  0  0
 17 21  1  0  0  0  0
 18 21  2  0  0  0  0
 19 21  2  0  0  0  0
  1 22  1  0  0  0  0
  2 23  1  0  0  0  0
  3 24  1  0  0  0  0
  4 25  1  0  0  0  0
  5 26  1  0  0  0  0
  6 27  1  0  0  0  0
 13 28  1  0  0  0  0
 13 29  1  0  0  0  0
 13 30  1  0  0  0  0
 14 31  1  0  0  0  0
 14 32  1  0  0  0  0
 15 33  1  0  0  0  0
 16 34  1  0  0  0  0
 16 35  1  0  0  0  0
 17 36  1  0  0  0  0
M  END
> <FRED Chemgauss4 score>
-7.480245

$$$$
C48262969	P72208098
  -OEChem-05122015073D

 27 27  0     0  0  0  0  0  0999 V2000
   59.3661  160.2688   -4.8432 C   0  0  0  0  0  0  0  0  0  0  0  0
   58.4443  161.2618   -2.8561 C   0  0  0  0  0  0  0  0  0  0  0  0
   60.1170  161.4218   -5.0061 C   0  0  0  0  0  0  0  0  0  0  0  0
   59.2366  162.3703   -3.1079 C   0  0  0  0  0  0  0  0  0  0  0  0
   58.5163  160.1952   -3.7452 C   0  0  0  0  0  0  0  0  0  0  0  0
   54.6438  157.7628   -2.8794 C   0  0  0  0  0  0  0  0  0  0  0  0
   53.9390  156.4420   -2.8318 C   0  0  0  0  0  0  0  0  0  0  0  0
   57.6750  158.9630   -3.5196 C   0  0  0  0  0  0  0  0  0  0  0  0
   56.3079  159.0436   -4.1945 C   0  0  0  0  0  0  0  0  0  0  0  0
   60.0739  162.4783   -4.1638 N   0  0  0  0  0  0  0  0  0  0  0  0
   52.4194  155.0571   -4.0102 N   0  0  0  0  0  0  0  0  0  0  0  0
   55.4999  157.8716   -3.9515 N   0  0  0  0  0  0  0  0  0  0  0  0
   53.1453  156.2270   -3.9320 N   0  0  0  0  0  0  0  0  0  0  0  0
   54.4125  158.5668   -1.9906 O   0  0  0  0  0  0  0  0  0  0  0  0
   54.1214  155.7324   -1.8551 O   0  0  0  0  0  0  0  0  0  0  0  0
   59.4445  159.4543   -5.5555 H   0  0  0  0  0  0  0  0  0  0  0  0
   57.7914  161.2342   -1.9906 H   0  0  0  0  0  0  0  0  0  0  0  0
   60.7942  161.5293   -5.8472 H   0  0  0  0  0  0  0  0  0  0  0  0
   59.2170  163.2286   -2.4444 H   0  0  0  0  0  0  0  0  0  0  0  0
   57.5385  158.8278   -2.4392 H   0  0  0  0  0  0  0  0  0  0  0  0
   58.2168  158.0747   -3.8689 H   0  0  0  0  0  0  0  0  0  0  0  0
   55.7486  159.8993   -3.8031 H   0  0  0  0  0  0  0  0  0  0  0  0
   56.3992  159.1628   -5.2792 H   0  0  0  0  0  0  0  0  0  0  0  0
   51.5513  155.2794   -4.4956 H   0  0  0  0  0  0  0  0  0  0  0  0
   52.1535  154.8098   -3.0580 H   0  0  0  0  0  0  0  0  0  0  0  0
   55.5834  157.0959   -4.6020 H   0  0  0  0  0  0  0  0  0  0  0  0
   53.0940  156.9172   -4.6747 H   0  0  0  0  0  0  0  0  0  0  0  0
  1  3  1  0  0  0  0
  1  5  2  0  0  0  0
  2  4  2  0  0  0  0
  2  5  1  0  0  0  0
  3 10  2  0  0  0  0
  4 10  1  0  0  0  0
  5  8  1  0  0  0  0
  6  7  1  0  0  0  0
  6 12  1  0  0  0  0
  6 14  2  0  0  0  0
  7 13  1  0  0  0  0
  7 15  2  0  0  0  0
  8  9  1  0  0  0  0
  9 12  1  0  0  0  0
 11 13  1  0  0  0  0
  1 16  1  0  0  0  0
  2 17  1  0  0  0  0
  3 18  1  0  0  0  0
  4 19  1  0  0  0  0
  8 20  1  0  0  0  0
  8 21  1  0  0  0  0
  9 22  1  0  0  0  0
  9 23  1  0  0  0  0
 11 24  1  0  0  0  0
 11 25  1  0  0  0  0
 12 26  1  0  0  0  0
 13 27  1  0  0  0  0
M  END
> <FRED Chemgauss4 score>
-7.476836

$$$$
C37672949	P56023838
  -OEChem-05122015073D

 36 37  0     1  0  0  0  0  0999 V2000
   61.3674  162.5915   -6.4727 C   0  0  0  0  0  0  0  0  0  0  0  0
   55.4388  154.4113   -6.2623 C   0  0  0  0  0  0  0  0  0  0  0  0
   59.2739  161.3991   -6.0532 C   0  0  0  0  0  0  0  0  0  0  0  0
   56.6681  155.0547   -6.4047 C   0  0  0  0  0  0  0  0  0  0  0  0
   54.4608  154.9526   -5.4279 C   0  0  0  0  0  0  0  0  0  0  0  0
   58.4904  160.2500   -6.1593 C   0  0  0  0  0  0  0  0  0  0  0  0
   61.0726  160.2800   -7.2149 C   0  0  0  0  0  0  0  0  0  0  0  0
   55.9416  156.7806   -4.8781 C   0  0  0  0  0  0  0  0  0  0  0  0
   60.5650  161.4142   -6.5810 C   0  0  0  0  0  0  0  0  0  0  0  0
   56.9196  156.2393   -5.7126 C   0  0  0  0  0  0  0  0  0  0  0  0
   54.7122  156.1372   -4.7358 C   0  0  0  0  0  0  0  0  0  0  0  0
   58.9980  159.1159   -6.7931 C   0  0  0  0  0  0  0  0  0  0  0  0
   60.2891  159.1309   -7.3209 C   0  0  0  0  0  0  0  0  0  0  0  0
   59.3963  155.9623   -6.1466 C   0  0  0  0  0  0  0  0  0  0  0  0
   57.3383  157.7581   -8.0428 C   0  0  0  0  0  0  0  0  0  0  0  0
   58.2540  156.9368   -5.8667 C   0  0  1  0  0  0  0  0  0  0  0  0
   62.0190  163.5478   -6.3847 N   0  0  0  0  0  0  0  0  0  0  0  0
   53.7231  156.6847   -3.8924 N   0  0  0  0  0  0  0  0  0  0  0  0
   58.2040  157.9548   -6.8972 N   0  0  3  0  0  0  0  0  0  0  0  0
   60.7872  158.0459   -7.9310 F   0  0  0  0  0  0  0  0  0  0  0  0
   55.2430  153.4888   -6.8014 H   0  0  0  0  0  0  0  0  0  0  0  0
   58.8636  162.2756   -5.5573 H   0  0  0  0  0  0  0  0  0  0  0  0
   57.4245  154.6257   -7.0571 H   0  0  0  0  0  0  0  0  0  0  0  0
   53.5061  154.4431   -5.3245 H   0  0  0  0  0  0  0  0  0  0  0  0
   57.4853  160.2489   -5.7454 H   0  0  0  0  0  0  0  0  0  0  0  0
   62.0772  160.2757   -7.6304 H   0  0  0  0  0  0  0  0  0  0  0  0
   56.1392  157.7046   -4.3394 H   0  0  0  0  0  0  0  0  0  0  0  0
   59.2158  155.3967   -7.0673 H   0  0  0  0  0  0  0  0  0  0  0  0
   60.3428  156.5028   -6.2603 H   0  0  0  0  0  0  0  0  0  0  0  0
   59.5320  155.2443   -5.3300 H   0  0  0  0  0  0  0  0  0  0  0  0
   56.8038  156.8090   -7.9512 H   0  0  0  0  0  0  0  0  0  0  0  0
   57.9276  157.7426   -8.9637 H   0  0  0  0  0  0  0  0  0  0  0  0
   56.6075  158.5686   -8.1080 H   0  0  0  0  0  0  0  0  0  0  0  0
   58.4897  157.4711   -4.9382 H   0  0  0  0  0  0  0  0  0  0  0  0
   52.8294  156.2398   -3.8359 H   0  0  0  0  0  0  0  0  0  0  0  0
   53.8982  157.5586   -3.4389 H   0  0  0  0  0  0  0  0  0  0  0  0
  1  9  1  0  0  0  0
  1 17  3  0  0  0  0
  2  4  2  0  0  0  0
  2  5  1  0  0  0  0
  3  6  2  0  0  0  0
  3  9  1  0  0  0  0
  4 10  1  0  0  0  0
  5 11  2  0  0  0  0
  6 12  1  0  0  0  0
  7  9  2  0  0  0  0
  7 13  1  0  0  0  0
  8 10  2  0  0  0  0
  8 11  1  0  0  0  0
 10 16  1  0  0  0  0
 11 18  1  0  0  0  0
 12 13  2  0  0  0  0
 12 19  1  0  0  0  0
 13 20  1  0  0  0  0
 14 16  1  0  0  0  0
 15 19  1  0  0  0  0
 16 19  1  0  0  0  0
  2 21  1  0  0  0  0
  3 22  1  0  0  0  0
  4 23  1  0  0  0  0
  5 24  1  0  0  0  0
  6 25  1  0  0  0  0
  7 26  1  0  0  0  0
  8 27  1  0  0  0  0
 14 28  1  0  0  0  0
 14 29  1  0  0  0  0
 14 30  1  0  0  0  0
 15 31  1  0  0  0  0
 15 32  1  0  0  0  0
 15 33  1  0  0  0  0
 16 34  1  0  0  0  0
 18 35  1  0  0  0  0
 18 36  1  0  0  0  0
M  END
> <FRED Chemgauss4 score>
-7.475485

$$$$
C92781676	P145255482
  -OEChem-05122015073D

 38 40  0     1  0  0  0  0  0999 V2000
   56.4260  159.5993    1.3162 C   0  0  0  0  0  0  0  0  0  0  0  0
   56.7886  160.6089    2.1804 C   0  0  0  0  0  0  0  0  0  0  0  0
   57.8364  160.8644   -0.0302 C   0  0  0  0  0  0  0  0  0  0  0  0
   57.6340  153.4950   -7.1884 C   0  0  0  0  0  0  0  0  0  0  0  0
   57.0330  159.7471    0.0356 C   0  0  0  0  0  0  0  0  0  0  0  0
   57.0478  155.0904   -5.9261 C   0  0  0  0  0  0  0  0  0  0  0  0
   55.9325  154.3001   -6.0656 C   0  0  0  0  0  0  0  0  0  0  0  0
   55.5447  157.6649   -3.6140 C   0  0  0  0  0  0  0  0  0  0  0  0
   57.0424  156.3122   -5.0893 C   0  0  0  0  0  0  0  0  0  0  0  0
   54.6087  154.5618   -5.4597 C   0  0  0  0  0  0  0  0  0  0  0  0
   55.5779  156.7066   -4.7617 C   0  0  1  0  0  0  0  0  0  0  0  0
   55.7251  160.5161   -2.6432 C   0  0  0  0  0  0  0  0  0  0  0  0
   56.8187  158.7910   -1.1132 C   0  0  0  0  0  0  0  0  0  0  0  0
   56.8325  159.4728   -2.4936 C   0  0  1  0  0  0  0  0  0  0  0  0
   58.1095  154.5868   -6.6213 N   0  0  0  0  0  0  0  0  0  0  0  0
   56.3129  153.2784   -6.8807 N   0  0  0  0  0  0  0  0  0  0  0  0
   54.7363  155.5536   -4.3644 N   0  0  0  0  0  0  0  0  0  0  0  0
   56.6602  158.4755   -3.5254 N   0  0  0  0  0  0  0  0  0  0  0  0
   54.5777  157.6728   -2.8612 O   0  0  0  0  0  0  0  0  0  0  0  0
   57.8567  161.7290    1.4477 S   0  0  0  0  0  0  0  0  0  0  0  0
   55.7563  158.7950    1.5935 H   0  0  0  0  0  0  0  0  0  0  0  0
   56.4770  160.7427    3.2066 H   0  0  0  0  0  0  0  0  0  0  0  0
   58.4130  161.2183   -0.8736 H   0  0  0  0  0  0  0  0  0  0  0  0
   58.1856  152.8214   -7.8288 H   0  0  0  0  0  0  0  0  0  0  0  0
   57.6112  156.1190   -4.1713 H   0  0  0  0  0  0  0  0  0  0  0  0
   57.5402  157.1360   -5.6137 H   0  0  0  0  0  0  0  0  0  0  0  0
   53.9207  154.9453   -6.2223 H   0  0  0  0  0  0  0  0  0  0  0  0
   54.1821  153.6400   -5.0513 H   0  0  0  0  0  0  0  0  0  0  0  0
   55.1160  157.2079   -5.6277 H   0  0  0  0  0  0  0  0  0  0  0  0
   54.7391  160.0652   -2.4826 H   0  0  0  0  0  0  0  0  0  0  0  0
   55.7299  160.9689   -3.6411 H   0  0  0  0  0  0  0  0  0  0  0  0
   55.8361  161.3187   -1.9070 H   0  0  0  0  0  0  0  0  0  0  0  0
   57.5730  157.9934   -1.0781 H   0  0  0  0  0  0  0  0  0  0  0  0
   55.8540  158.2905   -0.9509 H   0  0  0  0  0  0  0  0  0  0  0  0
   57.7977  159.9646   -2.6616 H   0  0  0  0  0  0  0  0  0  0  0  0
   55.7397  152.5092   -7.2019 H   0  0  0  0  0  0  0  0  0  0  0  0
   53.8030  155.8778   -4.1102 H   0  0  0  0  0  0  0  0  0  0  0  0
   57.3942  158.3652   -4.2185 H   0  0  0  0  0  0  0  0  0  0  0  0
  1  2  2  0  0  0  0
  1  5  1  0  0  0  0
  2 20  1  0  0  0  0
  3  5  2  0  0  0  0
  3 20  1  0  0  0  0
  4 15  2  0  0  0  0
  4 16  1  0  0  0  0
  5 13  1  0  0  0  0
  6  7  2  0  0  0  0
  6  9  1  0  0  0  0
  6 15  1  0  0  0  0
  7 10  1  0  0  0  0
  7 16  1  0  0  0  0
  8 11  1  0  0  0  0
  8 18  1  0  0  0  0
  8 19  2  0  0  0  0
  9 11  1  0  0  0  0
 10 17  1  0  0  0  0
 11 17  1  0  0  0  0
 12 14  1  0  0  0  0
 13 14  1  0  0  0  0
 14 18  1  0  0  0  0
  1 21  1  0  0  0  0
  2 22  1  0  0  0  0
  3 23  1  0  0  0  0
  4 24  1  0  0  0  0
  9 25  1  0  0  0  0
  9 26  1  0  0  0  0
 10 27  1  0  0  0  0
 10 28  1  0  0  0  0
 11 29  1  0  0  0  0
 12 30  1  0  0  0  0
 12 31  1  0  0  0  0
 12 32  1  0  0  0  0
 13 33  1  0  0  0  0
 13 34  1  0  0  0  0
 14 35  1  0  0  0  0
 16 36  1  0  0  0  0
 17 37  1  0  0  0  0
 18 38  1  0  0  0  0
M  END
> <FRED Chemgauss4 score>
-7.470119

$$$$
C90311277	P141184880
  -OEChem-05122015073D

 41 42  0     1  0  0  0  0  0999 V2000
   56.6610  159.3192   -2.6131 C   0  0  0  0  0  0  0  0  0  0  0  0
   56.9613  159.8686   -1.3438 C   0  0  0  0  0  0  0  0  0  0  0  0
   57.4116  160.0268   -3.5229 C   0  0  0  0  0  0  0  0  0  0  0  0
   57.8742  160.8727   -1.5684 C   0  0  0  0  0  0  0  0  0  0  0  0
   55.7319  158.2098   -2.9494 C   0  0  0  0  0  0  0  0  0  0  0  0
   54.2051  155.7822   -6.2730 C   0  0  0  0  0  0  0  0  0  0  0  0
   53.9713  156.8685   -5.2018 C   0  0  2  0  0  0  0  0  0  0  0  0
   55.2707  156.3889   -4.5218 C   0  0  1  0  0  0  0  0  0  0  0  0
   55.7106  155.8390   -5.9042 C   0  0  2  0  0  0  0  0  0  0  0  0
   56.4100  159.4534   -0.0399 C   0  0  0  0  0  0  0  0  0  0  0  0
   57.5591  159.9596   -4.9849 C   0  0  0  0  0  0  0  0  0  0  0  0
   58.5749  161.8172   -0.6855 C   0  0  0  0  0  0  0  0  0  0  0  0
   58.6941  157.2831   -7.5133 C   0  0  0  0  0  0  0  0  0  0  0  0
   57.8850  156.3546   -6.6330 C   0  0  0  0  0  0  0  0  0  0  0  0
   52.8315  156.4835   -4.3801 N   0  0  0  0  0  0  0  0  0  0  0  0
   56.0737  157.4672   -4.0606 N   0  0  0  0  0  0  0  0  0  0  0  0
   54.7333  158.0326   -2.2566 O   0  0  0  0  0  0  0  0  0  0  0  0
   58.1540  160.9756   -2.8942 O   0  0  0  0  0  0  0  0  0  0  0  0
   56.5182  156.7024   -6.7305 O   0  0  0  0  0  0  0  0  0  0  0  0
   53.7547  154.8005   -6.0801 H   0  0  0  0  0  0  0  0  0  0  0  0
   53.9596  156.0823   -7.2962 H   0  0  0  0  0  0  0  0  0  0  0  0
   53.9666  157.8968   -5.5745 H   0  0  0  0  0  0  0  0  0  0  0  0
   55.1596  155.6069   -3.7788 H   0  0  0  0  0  0  0  0  0  0  0  0
   56.1765  154.8467   -5.8498 H   0  0  0  0  0  0  0  0  0  0  0  0
   57.0295  158.6670    0.4221 H   0  0  0  0  0  0  0  0  0  0  0  0
   56.3514  160.2946    0.6723 H   0  0  0  0  0  0  0  0  0  0  0  0
   55.3827  159.0599   -0.1306 H   0  0  0  0  0  0  0  0  0  0  0  0
   56.8315  160.6162   -5.4934 H   0  0  0  0  0  0  0  0  0  0  0  0
   58.5682  160.2632   -5.3185 H   0  0  0  0  0  0  0  0  0  0  0  0
   57.4095  158.9359   -5.3743 H   0  0  0  0  0  0  0  0  0  0  0  0
   59.5354  161.4019   -0.3327 H   0  0  0  0  0  0  0  0  0  0  0  0
   58.7945  162.7769   -1.1881 H   0  0  0  0  0  0  0  0  0  0  0  0
   57.9786  162.0764    0.2087 H   0  0  0  0  0  0  0  0  0  0  0  0
   58.3857  157.1967   -8.5589 H   0  0  0  0  0  0  0  0  0  0  0  0
   58.5712  158.3230   -7.1933 H   0  0  0  0  0  0  0  0  0  0  0  0
   59.7618  157.0516   -7.4397 H   0  0  0  0  0  0  0  0  0  0  0  0
   58.1983  156.4460   -5.5887 H   0  0  0  0  0  0  0  0  0  0  0  0
   58.0083  155.3162   -6.9546 H   0  0  0  0  0  0  0  0  0  0  0  0
   51.9944  156.1916   -4.8398 H   0  0  0  0  0  0  0  0  0  0  0  0
   52.8499  156.7142   -3.4085 H   0  0  0  0  0  0  0  0  0  0  0  0
   56.8762  157.7038   -4.6253 H   0  0  0  0  0  0  0  0  0  0  0  0
  1  2  1  0  0  0  0
  1  3  2  0  0  0  0
  1  5  1  0  0  0  0
  2  4  2  0  0  0  0
  2 10  1  0  0  0  0
  3 11  1  0  0  0  0
  3 18  1  0  0  0  0
  4 12  1  0  0  0  0
  4 18  1  0  0  0  0
  5 16  1  0  0  0  0
  5 17  2  0  0  0  0
  6  7  1  0  0  0  0
  6  9  1  0  0  0  0
  7  8  1  0  0  0  0
  7 15  1  0  0  0  0
  8  9  1  0  0  0  0
  8 16  1  0  0  0  0
  9 19  1  0  0  0  0
 13 14  1  0  0  0  0
 14 19  1  0  0  0  0
  6 20  1  0  0  0  0
  6 21  1  0  0  0  0
  7 22  1  0  0  0  0
  8 23  1  0  0  0  0
  9 24  1  0  0  0  0
 10 25  1  0  0  0  0
 10 26  1  0  0  0  0
 10 27  1  0  0  0  0
 11 28  1  0  0  0  0
 11 29  1  0  0  0  0
 11 30  1  0  0  0  0
 12 31  1  0  0  0  0
 12 32  1  0  0  0  0
 12 33  1  0  0  0  0
 13 34  1  0  0  0  0
 13 35  1  0  0  0  0
 13 36  1  0  0  0  0
 14 37  1  0  0  0  0
 14 38  1  0  0  0  0
 15 39  1  0  0  0  0
 15 40  1  0  0  0  0
 16 41  1  0  0  0  0
M  END
> <FRED Chemgauss4 score>
-7.463424

$$$$
C80744995	P126055637
  -OEChem-05122015073D

 40 41  0     1  0  0  0  0  0999 V2000
   53.2049  155.1619   -4.1679 C   0  0  0  0  0  0  0  0  0  0  0  0
   55.5942  152.8664   -6.1251 C   0  0  0  0  0  0  0  0  0  0  0  0
   55.6520  155.3038   -5.5427 C   0  0  0  0  0  0  0  0  0  0  0  0
   56.6745  153.1344   -7.1751 C   0  0  0  0  0  0  0  0  0  0  0  0
   56.7299  155.4911   -6.6124 C   0  0  0  0  0  0  0  0  0  0  0  0
   60.8720  158.0002   -8.1500 C   0  0  0  0  0  0  0  0  0  0  0  0
   60.8125  155.6000   -8.1003 C   0  0  0  0  0  0  0  0  0  0  0  0
   59.5163  158.0253   -7.4554 C   0  0  0  0  0  0  0  0  0  0  0  0
   54.7426  154.1147   -5.8703 C   0  0  0  0  0  0  0  0  0  0  0  0
   59.4542  155.6684   -7.3971 C   0  0  2  0  0  0  0  0  0  0  0  0
   53.7334  153.8712   -4.7517 C   0  0  0  0  0  0  0  0  0  0  0  0
   58.5822  154.4781   -7.7719 C   0  0  0  0  0  0  0  0  0  0  0  0
   61.6069  156.7890   -7.7825 N   0  0  0  0  0  0  0  0  0  0  0  0
   57.5240  154.2673   -6.7842 N   0  0  0  0  0  0  0  0  0  0  0  0
   52.0887  155.6137   -4.8386 N   0  0  0  0  0  0  0  0  0  0  0  0
   53.7072  155.7430   -3.2103 O   0  0  0  0  0  0  0  0  0  0  0  0
   58.7629  156.8593   -7.7929 O   0  0  0  0  0  0  0  0  0  0  0  0
   54.9560  152.0412   -6.4631 H   0  0  0  0  0  0  0  0  0  0  0  0
   56.0690  152.5386   -5.1908 H   0  0  0  0  0  0  0  0  0  0  0  0
   56.1313  155.1523   -4.5664 H   0  0  0  0  0  0  0  0  0  0  0  0
   55.0551  156.2203   -5.4642 H   0  0  0  0  0  0  0  0  0  0  0  0
   57.2856  152.2289   -7.2736 H   0  0  0  0  0  0  0  0  0  0  0  0
   56.2031  153.3166   -8.1500 H   0  0  0  0  0  0  0  0  0  0  0  0
   56.2610  155.7899   -7.5593 H   0  0  0  0  0  0  0  0  0  0  0  0
   57.3818  156.3153   -6.2980 H   0  0  0  0  0  0  0  0  0  0  0  0
   60.7382  158.0292   -9.2383 H   0  0  0  0  0  0  0  0  0  0  0  0
   61.4540  158.8815   -7.8616 H   0  0  0  0  0  0  0  0  0  0  0  0
   61.3586  154.7072   -7.7770 H   0  0  0  0  0  0  0  0  0  0  0  0
   60.6819  155.5339   -9.1878 H   0  0  0  0  0  0  0  0  0  0  0  0
   59.6207  158.0898   -6.3654 H   0  0  0  0  0  0  0  0  0  0  0  0
   58.9443  158.8982   -7.7854 H   0  0  0  0  0  0  0  0  0  0  0  0
   54.1843  154.3470   -6.7871 H   0  0  0  0  0  0  0  0  0  0  0  0
   59.5756  155.6698   -6.3083 H   0  0  0  0  0  0  0  0  0  0  0  0
   54.2105  153.2926   -3.9565 H   0  0  0  0  0  0  0  0  0  0  0  0
   52.8941  153.2914   -5.1446 H   0  0  0  0  0  0  0  0  0  0  0  0
   59.1814  153.5639   -7.8195 H   0  0  0  0  0  0  0  0  0  0  0  0
   58.1047  154.6376   -8.7431 H   0  0  0  0  0  0  0  0  0  0  0  0
   62.4869  156.7566   -8.2962 H   0  0  0  0  0  0  0  0  0  0  0  0
   51.7272  155.0815   -5.6237 H   0  0  0  0  0  0  0  0  0  0  0  0
   51.6231  156.4706   -4.5587 H   0  0  0  0  0  0  0  0  0  0  0  0
  1 11  1  0  0  0  0
  1 15  1  0  0  0  0
  1 16  2  0  0  0  0
  2  4  1  0  0  0  0
  2  9  1  0  0  0  0
  3  5  1  0  0  0  0
  3  9  1  0  0  0  0
  4 14  1  0  0  0  0
  5 14  1  0  0  0  0
  6  8  1  0  0  0  0
  6 13  1  0  0  0  0
  7 10  1  0  0  0  0
  7 13  1  0  0  0  0
  8 17  1  0  0  0  0
  9 11  1  0  0  0  0
 10 12  1  0  0  0  0
 10 17  1  0  0  0  0
 12 14  1  0  0  0  0
  2 18  1  0  0  0  0
  2 19  1  0  0  0  0
  3 20  1  0  0  0  0
  3 21  1  0  0  0  0
  4 22  1  0  0  0  0
  4 23  1  0  0  0  0
  5 24  1  0  0  0  0
  5 25  1  0  0  0  0
  6 26  1  0  0  0  0
  6 27  1  0  0  0  0
  7 28  1  0  0  0  0
  7 29  1  0  0  0  0
  8 30  1  0  0  0  0
  8 31  1  0  0  0  0
  9 32  1  0  0  0  0
 10 33  1  0  0  0  0
 11 34  1  0  0  0  0
 11 35  1  0  0  0  0
 12 36  1  0  0  0  0
 12 37  1  0  0  0  0
 13 38  1  0  0  0  0
 15 39  1  0  0  0  0
 15 40  1  0  0  0  0
M  END
> <FRED Chemgauss4 score>
-7.459006

$$$$
C41011592	P62245845
  -OEChem-05122015073D

 31 32  0     0  0  0  0  0  0999 V2000
   55.3781  154.1311   -6.6271 C   0  0  0  0  0  0  0  0  0  0  0  0
   56.6418  154.6958   -6.7997 C   0  0  0  0  0  0  0  0  0  0  0  0
   56.3094  156.0439   -4.8225 C   0  0  0  0  0  0  0  0  0  0  0  0
   55.5584  159.7733   -1.4799 C   0  0  0  0  0  0  0  0  0  0  0  0
   56.5637  160.2764   -2.2789 C   0  0  0  0  0  0  0  0  0  0  0  0
   54.5800  154.5227   -5.5522 C   0  0  0  0  0  0  0  0  0  0  0  0
   57.1074  155.6522   -5.8974 C   0  0  0  0  0  0  0  0  0  0  0  0
   55.0457  155.4791   -4.6499 C   0  0  0  0  0  0  0  0  0  0  0  0
   54.7961  159.1092   -3.4261 C   0  0  0  0  0  0  0  0  0  0  0  0
   53.2320  153.8985   -5.3958 C   0  0  0  0  0  0  0  0  0  0  0  0
   53.9173  158.4766   -4.4661 C   0  0  0  0  0  0  0  0  0  0  0  0
   54.5438  159.1041   -2.1360 N   0  0  0  0  0  0  0  0  0  0  0  0
   58.3858  156.2219   -6.0717 N   0  0  0  0  0  0  0  0  0  0  0  0
   53.1983  157.3069   -3.9412 N   0  0  0  0  0  0  0  0  0  0  0  0
   53.1357  154.9258   -2.9599 O   0  0  0  0  0  0  0  0  0  0  0  0
   54.9755  156.4929   -2.2644 O   0  0  0  0  0  0  0  0  0  0  0  0
   56.2366  159.9005   -3.9200 S   0  0  0  0  0  0  0  0  0  0  0  0
   54.0716  155.9915   -3.2892 S   0  0  0  0  0  0  0  0  0  0  0  0
   55.0250  153.3871   -7.3363 H   0  0  0  0  0  0  0  0  0  0  0  0
   57.2547  154.3830   -7.6412 H   0  0  0  0  0  0  0  0  0  0  0  0
   56.6737  156.7899   -4.1197 H   0  0  0  0  0  0  0  0  0  0  0  0
   55.5173  159.8674   -0.4030 H   0  0  0  0  0  0  0  0  0  0  0  0
   57.4466  160.8266   -1.9861 H   0  0  0  0  0  0  0  0  0  0  0  0
   53.3012  152.9951   -4.7789 H   0  0  0  0  0  0  0  0  0  0  0  0
   52.5267  154.5923   -4.9222 H   0  0  0  0  0  0  0  0  0  0  0  0
   52.8065  153.6257   -6.3694 H   0  0  0  0  0  0  0  0  0  0  0  0
   53.1738  159.1935   -4.8313 H   0  0  0  0  0  0  0  0  0  0  0  0
   54.5046  158.1486   -5.3302 H   0  0  0  0  0  0  0  0  0  0  0  0
   58.9668  155.8976   -6.8181 H   0  0  0  0  0  0  0  0  0  0  0  0
   58.7271  156.8712   -5.3921 H   0  0  0  0  0  0  0  0  0  0  0  0
   52.2412  157.4778   -3.6095 H   0  0  0  0  0  0  0  0  0  0  0  0
  1  2  2  0  0  0  0
  1  6  1  0  0  0  0
  2  7  1  0  0  0  0
  3  7  2  0  0  0  0
  3  8  1  0  0  0  0
  4  5  2  0  0  0  0
  4 12  1  0  0  0  0
  5 17  1  0  0  0  0
  6  8  2  0  0  0  0
  6 10  1  0  0  0  0
  7 13  1  0  0  0  0
  8 18  1  0  0  0  0
  9 11  1  0  0  0  0
  9 12  2  0  0  0  0
  9 17  1  0  0  0  0
 11 14  1  0  0  0  0
 14 18  1  0  0  0  0
 15 18  2  0  0  0  0
 16 18  2  0  0  0  0
  1 19  1  0  0  0  0
  2 20  1  0  0  0  0
  3 21  1  0  0  0  0
  4 22  1  0  0  0  0
  5 23  1  0  0  0  0
 10 24  1  0  0  0  0
 10 25  1  0  0  0  0
 10 26  1  0  0  0  0
 11 27  1  0  0  0  0
 11 28  1  0  0  0  0
 13 29  1  0  0  0  0
 13 30  1  0  0  0  0
 14 31  1  0  0  0  0
M  END
> <FRED Chemgauss4 score>
-7.454270

$$$$
C43287284	P65476438
  -OEChem-05122015073D

 42 43  0     1  0  0  0  0  0999 V2000
   55.9989  158.8015   -2.3100 C   0  0  0  0  0  0  0  0  0  0  0  0
   58.1814  159.5817   -2.1353 C   0  0  0  0  0  0  0  0  0  0  0  0
   57.0116  159.3244   -1.4549 C   0  0  0  0  0  0  0  0  0  0  0  0
   56.4333  158.6792   -3.6117 C   0  0  0  0  0  0  0  0  0  0  0  0
   54.4378  155.8656   -3.2777 C   0  0  0  0  0  0  0  0  0  0  0  0
   58.5775  155.0678   -6.9819 C   0  0  0  0  0  0  0  0  0  0  0  0
   58.4303  156.4048   -7.7136 C   0  0  0  0  0  0  0  0  0  0  0  0
   57.4734  155.0402   -5.9282 C   0  0  0  0  0  0  0  0  0  0  0  0
   57.2460  157.1140   -7.0620 C   0  0  0  0  0  0  0  0  0  0  0  0
   57.1935  156.5143   -5.6620 C   0  0  0  0  0  0  0  0  0  0  0  0
   53.3563  157.9940   -5.9464 C   0  0  0  0  0  0  0  0  0  0  0  0
   55.8743  156.0470   -3.7105 C   0  0  0  0  0  0  0  0  0  0  0  0
   55.6660  158.1664   -4.8229 C   0  0  2  0  0  0  0  0  0  0  0  0
   54.1456  158.4693   -4.7253 C   0  0  1  0  0  0  0  0  0  0  0  0
   53.7058  155.1315   -4.1861 N   0  0  0  0  0  0  0  0  0  0  0  0
   53.9219  159.8925   -4.5586 N   0  0  0  0  0  0  0  0  0  0  0  0
   55.9178  156.7340   -5.0045 N   0  0  1  0  0  0  0  0  0  0  0  0
   53.9837  156.2839   -2.2161 O   0  0  0  0  0  0  0  0  0  0  0  0
   58.0560  159.1934   -3.7984 S   0  0  0  0  0  0  0  0  0  0  0  0
   56.7355  159.6112    0.3847 Br  0  0  0  0  0  0  0  0  0  0  0  0
   55.0004  158.5270   -1.9919 H   0  0  0  0  0  0  0  0  0  0  0  0
   59.1070  159.9787   -1.7418 H   0  0  0  0  0  0  0  0  0  0  0  0
   58.4967  154.2172   -7.6663 H   0  0  0  0  0  0  0  0  0  0  0  0
   59.5624  155.0137   -6.5037 H   0  0  0  0  0  0  0  0  0  0  0  0
   59.3445  156.9971   -7.5918 H   0  0  0  0  0  0  0  0  0  0  0  0
   58.2697  156.2656   -8.7873 H   0  0  0  0  0  0  0  0  0  0  0  0
   56.5886  154.5374   -6.3394 H   0  0  0  0  0  0  0  0  0  0  0  0
   57.7773  154.4987   -5.0270 H   0  0  0  0  0  0  0  0  0  0  0  0
   57.3717  158.2014   -7.0502 H   0  0  0  0  0  0  0  0  0  0  0  0
   56.3308  156.8883   -7.6242 H   0  0  0  0  0  0  0  0  0  0  0  0
   57.9917  156.9375   -5.0463 H   0  0  0  0  0  0  0  0  0  0  0  0
   53.7445  158.4430   -6.8674 H   0  0  0  0  0  0  0  0  0  0  0  0
   52.2935  158.2397   -5.8625 H   0  0  0  0  0  0  0  0  0  0  0  0
   53.4314  156.9060   -6.0562 H   0  0  0  0  0  0  0  0  0  0  0  0
   56.3733  155.0806   -3.8232 H   0  0  0  0  0  0  0  0  0  0  0  0
   56.4040  156.6569   -2.9737 H   0  0  0  0  0  0  0  0  0  0  0  0
   56.0538  158.6747   -5.7162 H   0  0  0  0  0  0  0  0  0  0  0  0
   53.7181  157.9924   -3.8351 H   0  0  0  0  0  0  0  0  0  0  0  0
   54.1336  154.7758   -5.0345 H   0  0  0  0  0  0  0  0  0  0  0  0
   52.7234  154.9175   -4.0467 H   0  0  0  0  0  0  0  0  0  0  0  0
   54.5707  160.4179   -4.0050 H   0  0  0  0  0  0  0  0  0  0  0  0
   53.0328  160.2717   -4.8220 H   0  0  0  0  0  0  0  0  0  0  0  0
  1  3  1  0  0  0  0
  1  4  2  0  0  0  0
  2  3  2  0  0  0  0
  2 19  1  0  0  0  0
  3 20  1  0  0  0  0
  4 13  1  0  0  0  0
  4 19  1  0  0  0  0
  5 12  1  0  0  0  0
  5 15  1  0  0  0  0
  5 18  2  0  0  0  0
  6  7  1  0  0  0  0
  6  8  1  0  0  0  0
  7  9  1  0  0  0  0
  8 10  1  0  0  0  0
  9 10  1  0  0  0  0
 10 17  1  0  0  0  0
 11 14  1  0  0  0  0
 12 17  1  0  0  0  0
 13 14  1  0  0  0  0
 13 17  1  0  0  0  0
 14 16  1  0  0  0  0
  1 21  1  0  0  0  0
  2 22  1  0  0  0  0
  6 23  1  0  0  0  0
  6 24  1  0  0  0  0
  7 25  1  0  0  0  0
  7 26  1  0  0  0  0
  8 27  1  0  0  0  0
  8 28  1  0  0  0  0
  9 29  1  0  0  0  0
  9 30  1  0  0  0  0
 10 31  1  0  0  0  0
 11 32  1  0  0  0  0
 11 33  1  0  0  0  0
 11 34  1  0  0  0  0
 12 35  1  0  0  0  0
 12 36  1  0  0  0  0
 13 37  1  0  0  0  0
 14 38  1  0  0  0  0
 15 39  1  0  0  0  0
 15 40  1  0  0  0  0
 16 41  1  0  0  0  0
 16 42  1  0  0  0  0
M  END
> <FRED Chemgauss4 score>
-7.453947

$$$$
C87869111	P137439811
  -OEChem-05122015073D

 32 33  0     1  0  0  0  0  0999 V2000
   55.1011  158.5309   -2.0380 C   0  0  0  0  0  0  0  0  0  0  0  0
   56.1347  158.6591   -2.9433 C   0  0  0  0  0  0  0  0  0  0  0  0
   56.0796  157.8177   -4.0355 C   0  0  0  0  0  0  0  0  0  0  0  0
   54.1459  156.8878   -3.2850 C   0  0  0  0  0  0  0  0  0  0  0  0
   58.1174  158.1926   -7.9531 C   0  0  0  0  0  0  0  0  0  0  0  0
   59.3354  158.3514   -8.8563 C   0  0  0  0  0  0  0  0  0  0  0  0
   59.2219  156.0643   -7.4883 C   0  0  0  0  0  0  0  0  0  0  0  0
   58.5544  157.2649   -6.8117 C   0  0  2  0  0  0  0  0  0  0  0  0
   57.3902  156.8504   -5.9255 C   0  0  0  0  0  0  0  0  0  0  0  0
   54.0867  157.6524   -2.1780 N   0  0  0  0  0  0  0  0  0  0  0  0
   55.0962  156.9165   -4.2387 N   0  0  0  0  0  0  0  0  0  0  0  0
   52.4619  155.8114   -4.6735 N   0  0  0  0  0  0  0  0  0  0  0  0
   57.0904  157.8889   -4.9949 N   0  0  0  0  0  0  0  0  0  0  0  0
   53.1001  155.9564   -3.4649 N   0  0  0  0  0  0  0  0  0  0  0  0
   61.5069  156.9012   -8.5097 O   0  0  0  0  0  0  0  0  0  0  0  0
   59.7067  156.0446  -10.0790 O   0  0  0  0  0  0  0  0  0  0  0  0
   60.1155  156.7449   -8.8791 S   0  0  0  0  0  0  0  0  0  0  0  0
   57.5010  159.9236   -2.6443 Br  0  0  0  0  0  0  0  0  0  0  0  0
   55.0447  159.1427   -1.1429 H   0  0  0  0  0  0  0  0  0  0  0  0
   57.7708  159.1627   -7.5830 H   0  0  0  0  0  0  0  0  0  0  0  0
   57.2944  157.7366   -8.5177 H   0  0  0  0  0  0  0  0  0  0  0  0
   59.0686  158.6486   -9.8725 H   0  0  0  0  0  0  0  0  0  0  0  0
   60.0476  159.0648   -8.4314 H   0  0  0  0  0  0  0  0  0  0  0  0
   59.9182  155.5461   -6.8249 H   0  0  0  0  0  0  0  0  0  0  0  0
   58.4856  155.3567   -7.8820 H   0  0  0  0  0  0  0  0  0  0  0  0
   59.2997  157.7889   -6.1986 H   0  0  0  0  0  0  0  0  0  0  0  0
   57.6624  155.9537   -5.3804 H   0  0  0  0  0  0  0  0  0  0  0  0
   56.5185  156.6654   -6.5424 H   0  0  0  0  0  0  0  0  0  0  0  0
   51.4603  155.7453   -4.4990 H   0  0  0  0  0  0  0  0  0  0  0  0
   52.7361  154.9176   -5.0794 H   0  0  0  0  0  0  0  0  0  0  0  0
   57.6434  158.7483   -5.0175 H   0  0  0  0  0  0  0  0  0  0  0  0
   52.9683  155.2501   -2.7561 H   0  0  0  0  0  0  0  0  0  0  0  0
  1  2  1  0  0  0  0
  1 10  2  0  0  0  0
  2  3  2  0  0  0  0
  2 18  1  0  0  0  0
  3 11  1  0  0  0  0
  3 13  1  0  0  0  0
  4 10  1  0  0  0  0
  4 11  2  0  0  0  0
  4 14  1  0  0  0  0
  5  6  1  0  0  0  0
  5  8  1  0  0  0  0
  6 17  1  0  0  0  0
  7  8  1  0  0  0  0
  7 17  1  0  0  0  0
  8  9  1  0  0  0  0
  9 13  1  0  0  0  0
 12 14  1  0  0  0  0
 15 17  2  0  0  0  0
 16 17  2  0  0  0  0
  1 19  1  0  0  0  0
  5 20  1  0  0  0  0
  5 21  1  0  0  0  0
  6 22  1  0  0  0  0
  6 23  1  0  0  0  0
  7 24  1  0  0  0  0
  7 25  1  0  0  0  0
  8 26  1  0  0  0  0
  9 27  1  0  0  0  0
  9 28  1  0  0  0  0
 12 29  1  0  0  0  0
 12 30  1  0  0  0  0
 13 31  1  0  0  0  0
 14 32  1  0  0  0  0
M  END
> <FRED Chemgauss4 score>
-7.451079

$$$$
C61594745	P94307894
  -OEChem-05122015073D

 31 32  0     1  0  0  0  0  0999 V2000
   54.9328  156.5249   -5.9688 C   0  0  0  0  0  0  0  0  0  0  0  0
   54.1319  157.2221   -4.0710 C   0  0  0  0  0  0  0  0  0  0  0  0
   57.5684  158.1927   -5.0386 C   0  0  0  0  0  0  0  0  0  0  0  0
   56.9841  158.6685   -3.7418 C   0  0  0  0  0  0  0  0  0  0  0  0
   56.6229  157.3082   -4.2728 C   0  0  0  0  0  0  0  0  0  0  0  0
   55.1292  153.4538   -5.2467 C   0  0  0  0  0  0  0  0  0  0  0  0
   56.3073  153.5012   -6.2281 C   0  0  2  0  0  0  0  0  0  0  0  0
   57.0475  154.8633   -6.2381 C   0  0  1  0  0  0  0  0  0  0  0  0
   58.4513  154.7882   -6.8378 C   0  0  0  0  0  0  0  0  0  0  0  0
   53.6523  156.3764   -6.1288 N   0  0  0  0  0  0  0  0  0  0  0  0
   53.1210  156.8074   -4.9494 N   0  0  0  0  0  0  0  0  0  0  0  0
   55.3112  157.0268   -4.7638 N   0  0  0  0  0  0  0  0  0  0  0  0
   55.7854  153.1964   -7.5662 N   0  0  0  0  0  0  0  0  0  0  0  0
   53.9752  157.6589   -2.9400 O   0  0  0  0  0  0  0  0  0  0  0  0
   59.2566  153.9641   -6.1326 F   0  0  0  0  0  0  0  0  0  0  0  0
   58.4203  154.3427   -8.1154 F   0  0  0  0  0  0  0  0  0  0  0  0
   59.0411  156.0046   -6.8697 F   0  0  0  0  0  0  0  0  0  0  0  0
   56.1025  156.1223   -7.1854 S   0  0  0  0  0  0  0  0  0  0  0  0
   57.2156  158.6583   -5.9507 H   0  0  0  0  0  0  0  0  0  0  0  0
   58.6165  157.9198   -5.0498 H   0  0  0  0  0  0  0  0  0  0  0  0
   57.6387  158.7157   -2.8804 H   0  0  0  0  0  0  0  0  0  0  0  0
   56.2391  159.4535   -3.7835 H   0  0  0  0  0  0  0  0  0  0  0  0
   57.0595  156.4559   -3.7636 H   0  0  0  0  0  0  0  0  0  0  0  0
   54.3893  154.2302   -5.4628 H   0  0  0  0  0  0  0  0  0  0  0  0
   55.4656  153.5817   -4.2116 H   0  0  0  0  0  0  0  0  0  0  0  0
   54.6022  152.4945   -5.3121 H   0  0  0  0  0  0  0  0  0  0  0  0
   57.0134  152.7041   -5.9639 H   0  0  0  0  0  0  0  0  0  0  0  0
   57.1297  155.2414   -5.2120 H   0  0  0  0  0  0  0  0  0  0  0  0
   52.1200  156.7992   -4.8002 H   0  0  0  0  0  0  0  0  0  0  0  0
   55.0277  152.5574   -7.6311 H   0  0  0  0  0  0  0  0  0  0  0  0
   56.3311  153.4743   -8.3482 H   0  0  0  0  0  0  0  0  0  0  0  0
  1 10  2  0  0  0  0
  1 12  1  0  0  0  0
  1 18  1  0  0  0  0
  2 11  1  0  0  0  0
  2 12  1  0  0  0  0
  2 14  2  0  0  0  0
  3  4  1  0  0  0  0
  3  5  1  0  0  0  0
  4  5  1  0  0  0  0
  5 12  1  0  0  0  0
  6  7  1  0  0  0  0
  7  8  1  0  0  0  0
  7 13  1  0  0  0  0
  8  9  1  0  0  0  0
  8 18  1  0  0  0  0
  9 15  1  0  0  0  0
  9 16  1  0  0  0  0
  9 17  1  0  0  0  0
 10 11  1  0  0  0  0
  3 19  1  0  0  0  0
  3 20  1  0  0  0  0
  4 21  1  0  0  0  0
  4 22  1  0  0  0  0
  5 23  1  0  0  0  0
  6 24  1  0  0  0  0
  6 25  1  0  0  0  0
  6 26  1  0  0  0  0
  7 27  1  0  0  0  0
  8 28  1  0  0  0  0
 11 29  1  0  0  0  0
 13 30  1  0  0  0  0
 13 31  1  0  0  0  0
M  END
> <FRED Chemgauss4 score>
-7.446947

$$$$
L-Serine	P10000025
  -OEChem-05122015073D

 14 13  0     1  0  0  0  0  0999 V2000
   53.4136  155.9807   -3.2935 C   0  0  0  0  0  0  0  0  0  0  0  0
   55.0046  156.1234   -5.3365 C   0  0  0  0  0  0  0  0  0  0  0  0
   53.6702  155.6449   -4.7728 C   0  0  2  0  0  0  0  0  0  0  0  0
   52.5865  156.1391   -5.6809 N   0  3  0  0  0  0  0  0  0  0  0  0
   53.4358  157.2044   -2.9849 O   0  5  0  0  0  0  0  0  0  0  0  0
   53.2272  154.9745   -2.5494 O   0  0  0  0  0  0  0  0  0  0  0  0
   56.0766  155.6824   -4.5123 O   0  0  0  0  0  0  0  0  0  0  0  0
   55.0371  157.2173   -5.3866 H   0  0  0  0  0  0  0  0  0  0  0  0
   55.1645  155.7325   -6.3470 H   0  0  0  0  0  0  0  0  0  0  0  0
   53.6320  154.5517   -4.8550 H   0  0  0  0  0  0  0  0  0  0  0  0
   52.5276  157.1571   -5.6384 H   0  0  0  0  0  0  0  0  0  0  0  0
   51.6865  155.7469   -5.4011 H   0  0  0  0  0  0  0  0  0  0  0  0
   52.7797  155.8618   -6.6440 H   0  0  0  0  0  0  0  0  0  0  0  0
   56.0410  154.7125   -4.5033 H   0  0  0  0  0  0  0  0  0  0  0  0
  1  3  1  0  0  0  0
  1  5  1  0  0  0  0
  1  6  2  0  0  0  0
  2  3  1  0  0  0  0
  2  7  1  0  0  0  0
  3  4  1  0  0  0  0
  2  8  1  0  0  0  0
  2  9  1  0  0  0  0
  3 10  1  0  0  0  0
  4 11  1  0  0  0  0
  4 12  1  0  0  0  0
  4 13  1  0  0  0  0
  7 14  1  0  0  0  0
M  CHG  2   4   1   5  -1
M  END
> <FRED Chemgauss4 score>
-7.440349

$$$$
C88889534	P139043986
  -OEChem-05122015073D

 34 35  0     0  0  0  0  0  0999 V2000
   56.8231  155.0826   -6.8990 C   0  0  0  0  0  0  0  0  0  0  0  0
   54.8559  155.3531   -5.5227 C   0  0  0  0  0  0  0  0  0  0  0  0
   50.1231  160.2280   -6.9301 C   0  0  0  0  0  0  0  0  0  0  0  0
   50.3157  159.7131   -8.1950 C   0  0  0  0  0  0  0  0  0  0  0  0
   57.3333  156.2834   -6.4057 C   0  0  0  0  0  0  0  0  0  0  0  0
   56.6048  157.0191   -5.4710 C   0  0  0  0  0  0  0  0  0  0  0  0
   55.3661  156.5539   -5.0294 C   0  0  0  0  0  0  0  0  0  0  0  0
   55.5843  154.6174   -6.4575 C   0  0  0  0  0  0  0  0  0  0  0  0
   52.0964  159.3223   -6.6206 C   0  0  0  0  0  0  0  0  0  0  0  0
   57.9198  158.1168   -3.8213 C   0  0  0  0  0  0  0  0  0  0  0  0
   58.6612  156.7644   -6.8908 C   0  0  0  0  0  0  0  0  0  0  0  0
   53.3719  158.8896   -5.9572 C   0  0  0  0  0  0  0  0  0  0  0  0
   51.1430  160.0045   -6.0258 N   0  0  0  0  0  0  0  0  0  0  0  0
   53.1217  158.0249   -4.7952 N   0  0  0  0  0  0  0  0  0  0  0  0
   53.9230  156.5312   -2.8552 O   0  0  0  0  0  0  0  0  0  0  0  0
   55.2344  158.5965   -3.4377 O   0  0  0  0  0  0  0  0  0  0  0  0
   59.6908  155.9945   -6.2838 O   0  0  0  0  0  0  0  0  0  0  0  0
   57.1090  158.1922   -4.9912 O   0  0  0  0  0  0  0  0  0  0  0  0
   51.8328  158.9164   -8.2670 S   0  0  0  0  0  0  0  0  0  0  0  0
   54.4319  157.4567   -3.8576 S   0  0  0  0  0  0  0  0  0  0  0  0
   54.9537  153.1367   -7.0670 Cl  0  0  0  0  0  0  0  0  0  0  0  0
   57.3946  154.5119   -7.6276 H   0  0  0  0  0  0  0  0  0  0  0  0
   53.8900  154.9920   -5.1767 H   0  0  0  0  0  0  0  0  0  0  0  0
   49.2488  160.7801   -6.6125 H   0  0  0  0  0  0  0  0  0  0  0  0
   49.6601  159.7673   -9.0525 H   0  0  0  0  0  0  0  0  0  0  0  0
   58.2566  159.1190   -3.5452 H   0  0  0  0  0  0  0  0  0  0  0  0
   58.7808  157.4719   -4.0146 H   0  0  0  0  0  0  0  0  0  0  0  0
   57.3279  157.6960   -3.0050 H   0  0  0  0  0  0  0  0  0  0  0  0
   58.7462  156.6687   -7.9812 H   0  0  0  0  0  0  0  0  0  0  0  0
   58.8142  157.8220   -6.6389 H   0  0  0  0  0  0  0  0  0  0  0  0
   54.0040  158.3358   -6.6599 H   0  0  0  0  0  0  0  0  0  0  0  0
   53.9487  159.7545   -5.6128 H   0  0  0  0  0  0  0  0  0  0  0  0
   52.2014  158.1239   -4.3496 H   0  0  0  0  0  0  0  0  0  0  0  0
   60.5333  156.3368   -6.6235 H   0  0  0  0  0  0  0  0  0  0  0  0
  1  5  2  0  0  0  0
  1  8  1  0  0  0  0
  2  7  1  0  0  0  0
  2  8  2  0  0  0  0
  3  4  2  0  0  0  0
  3 13  1  0  0  0  0
  4 19  1  0  0  0  0
  5  6  1  0  0  0  0
  5 11  1  0  0  0  0
  6  7  2  0  0  0  0
  6 18  1  0  0  0  0
  7 20  1  0  0  0  0
  8 21  1  0  0  0  0
  9 12  1  0  0  0  0
  9 13  2  0  0  0  0
  9 19  1  0  0  0  0
 10 18  1  0  0  0  0
 11 17  1  0  0  0  0
 12 14  1  0  0  0  0
 14 20  1  0  0  0  0
 15 20  2  0  0  0  0
 16 20  2  0  0  0  0
  1 22  1  0  0  0  0
  2 23  1  0  0  0  0
  3 24  1  0  0  0  0
  4 25  1  0  0  0  0
 10 26  1  0  0  0  0
 10 27  1  0  0  0  0
 10 28  1  0  0  0  0
 11 29  1  0  0  0  0
 11 30  1  0  0  0  0
 12 31  1  0  0  0  0
 12 32  1  0  0  0  0
 14 33  1  0  0  0  0
 17 34  1  0  0  0  0
M  END
> <FRED Chemgauss4 score>
-7.434163

$$$$
C40377149	P61293722
  -OEChem-05122015073D

 31 31  0     0  0  0  0  0  0999 V2000
   57.6297  161.7372   -1.5158 C   0  0  0  0  0  0  0  0  0  0  0  0
   57.3036  159.4288   -0.9250 C   0  0  0  0  0  0  0  0  0  0  0  0
   57.6323  162.0276   -0.1610 C   0  0  0  0  0  0  0  0  0  0  0  0
   57.3211  159.8225    0.4034 C   0  0  0  0  0  0  0  0  0  0  0  0
   57.4616  160.4106   -1.8968 C   0  0  0  0  0  0  0  0  0  0  0  0
   53.3680  155.6557   -4.7792 C   0  0  0  0  0  0  0  0  0  0  0  0
   57.4500  160.0378   -3.3596 C   0  0  0  0  0  0  0  0  0  0  0  0
   54.0483  156.4900   -3.7119 C   0  0  0  0  0  0  0  0  0  0  0  0
   56.5856  158.8184   -3.6566 C   0  0  0  0  0  0  0  0  0  0  0  0
   57.4818  161.1011    0.8119 N   0  0  0  0  0  0  0  0  0  0  0  0
   54.1432  155.1023   -5.6644 N   0  0  0  0  0  0  0  0  0  0  0  0
   51.9985  155.5602   -4.6909 N   0  0  0  0  0  0  0  0  0  0  0  0
   54.1511  157.8283   -4.2172 N   0  0  0  0  0  0  0  0  0  0  0  0
   54.6879  158.7505   -1.8553 O   0  0  0  0  0  0  0  0  0  0  0  0
   54.4920  160.3700   -3.7776 O   0  0  0  0  0  0  0  0  0  0  0  0
   55.4779  155.4265   -5.4042 O   0  0  0  0  0  0  0  0  0  0  0  0
   54.8712  159.0704   -3.2575 S   0  0  0  0  0  0  0  0  0  0  0  0
   57.7545  162.5267   -2.2493 H   0  0  0  0  0  0  0  0  0  0  0  0
   57.1709  158.3857   -1.1906 H   0  0  0  0  0  0  0  0  0  0  0  0
   57.7587  163.0473    0.1881 H   0  0  0  0  0  0  0  0  0  0  0  0
   57.2020  159.0949    1.1994 H   0  0  0  0  0  0  0  0  0  0  0  0
   58.4805  159.8251   -3.6732 H   0  0  0  0  0  0  0  0  0  0  0  0
   57.1173  160.8895   -3.9663 H   0  0  0  0  0  0  0  0  0  0  0  0
   55.0536  156.1177   -3.4990 H   0  0  0  0  0  0  0  0  0  0  0  0
   53.4549  156.5077   -2.7938 H   0  0  0  0  0  0  0  0  0  0  0  0
   56.6140  158.5943   -4.7277 H   0  0  0  0  0  0  0  0  0  0  0  0
   56.9158  157.9298   -3.1100 H   0  0  0  0  0  0  0  0  0  0  0  0
   51.4754  156.0190   -3.9526 H   0  0  0  0  0  0  0  0  0  0  0  0
   51.4692  155.0181   -5.3653 H   0  0  0  0  0  0  0  0  0  0  0  0
   54.3336  157.9169   -5.2424 H   0  0  0  0  0  0  0  0  0  0  0  0
   55.9358  154.9592   -6.1232 H   0  0  0  0  0  0  0  0  0  0  0  0
  1  3  1  0  0  0  0
  1  5  2  0  0  0  0
  2  4  2  0  0  0  0
  2  5  1  0  0  0  0
  3 10  2  0  0  0  0
  4 10  1  0  0  0  0
  5  7  1  0  0  0  0
  6  8  1  0  0  0  0
  6 11  2  0  0  0  0
  6 12  1  0  0  0  0
  7  9  1  0  0  0  0
  8 13  1  0  0  0  0
  9 17  1  0  0  0  0
 11 16  1  0  0  0  0
 13 17  1  0  0  0  0
 14 17  2  0  0  0  0
 15 17  2  0  0  0  0
  1 18  1  0  0  0  0
  2 19  1  0  0  0  0
  3 20  1  0  0  0  0
  4 21  1  0  0  0  0
  7 22  1  0  0  0  0
  7 23  1  0  0  0  0
  8 24  1  0  0  0  0
  8 25  1  0  0  0  0
  9 26  1  0  0  0  0
  9 27  1  0  0  0  0
 12 28  1  0  0  0  0
 12 29  1  0  0  0  0
 13 30  1  0  0  0  0
 16 31  1  0  0  0  0
M  END
> <FRED Chemgauss4 score>
-7.424454

$$$$
C45174993	P68086517
  -OEChem-05122015073D

 40 41  0     1  0  0  0  0  0999 V2000
   59.4108  156.0794   -7.3380 C   0  0  0  0  0  0  0  0  0  0  0  0
   53.6865  156.4276   -3.5003 C   0  0  0  0  0  0  0  0  0  0  0  0
   61.5938  156.8476   -9.0806 C   0  0  0  0  0  0  0  0  0  0  0  0
   62.4259  158.0839   -8.8993 C   0  0  0  0  0  0  0  0  0  0  0  0
   55.6530  155.7825   -4.8694 C   0  0  0  0  0  0  0  0  0  0  0  0
   55.6136  157.9691   -3.6413 C   0  0  0  0  0  0  0  0  0  0  0  0
   57.1536  155.9814   -5.0901 C   0  0  0  0  0  0  0  0  0  0  0  0
   57.1151  158.0956   -3.9041 C   0  0  0  0  0  0  0  0  0  0  0  0
   55.1778  156.5052   -3.6104 C   0  0  0  0  0  0  0  0  0  0  0  0
   60.9723  158.0941   -8.5123 C   0  0  0  0  0  0  0  0  0  0  0  0
   58.2567  158.2084   -7.7931 C   0  0  0  0  0  0  0  0  0  0  0  0
   58.9235  157.5836   -5.4109 C   0  0  0  0  0  0  0  0  0  0  0  0
   59.2890  157.4899   -6.9114 C   0  0  1  0  0  0  0  0  0  0  0  0
   59.5033  154.9717   -7.6723 N   0  0  0  0  0  0  0  0  0  0  0  0
   57.4953  157.4094   -5.1467 N   0  0  0  0  0  0  0  0  0  0  0  0
   53.0220  156.9881   -4.5655 N   0  0  0  0  0  0  0  0  0  0  0  0
   60.5850  158.1536   -7.1144 N   0  0  0  0  0  0  0  0  0  0  0  0
   53.1294  155.8924   -2.5450 O   0  0  0  0  0  0  0  0  0  0  0  0
   61.3423  156.5550  -10.0928 H   0  0  0  0  0  0  0  0  0  0  0  0
   61.7691  156.0187   -8.4056 H   0  0  0  0  0  0  0  0  0  0  0  0
   63.1598  158.0855   -8.1026 H   0  0  0  0  0  0  0  0  0  0  0  0
   62.7317  158.6190   -9.7902 H   0  0  0  0  0  0  0  0  0  0  0  0
   55.1083  156.1338   -5.7451 H   0  0  0  0  0  0  0  0  0  0  0  0
   55.4517  154.7158   -4.7592 H   0  0  0  0  0  0  0  0  0  0  0  0
   55.3822  158.4276   -2.6775 H   0  0  0  0  0  0  0  0  0  0  0  0
   55.0645  158.5168   -4.4081 H   0  0  0  0  0  0  0  0  0  0  0  0
   57.6850  155.5063   -4.2574 H   0  0  0  0  0  0  0  0  0  0  0  0
   57.4660  155.4685   -6.0081 H   0  0  0  0  0  0  0  0  0  0  0  0
   57.4071  159.1530   -3.9342 H   0  0  0  0  0  0  0  0  0  0  0  0
   57.6448  157.6427   -3.0566 H   0  0  0  0  0  0  0  0  0  0  0  0
   55.5806  156.0236   -2.7327 H   0  0  0  0  0  0  0  0  0  0  0  0
   60.3021  158.6400   -9.1688 H   0  0  0  0  0  0  0  0  0  0  0  0
   58.1425  159.2592   -7.5018 H   0  0  0  0  0  0  0  0  0  0  0  0
   58.5484  158.1859   -8.8509 H   0  0  0  0  0  0  0  0  0  0  0  0
   57.2696  157.7350   -7.7296 H   0  0  0  0  0  0  0  0  0  0  0  0
   59.4741  156.8283   -4.8349 H   0  0  0  0  0  0  0  0  0  0  0  0
   59.2182  158.5637   -5.0155 H   0  0  0  0  0  0  0  0  0  0  0  0
   53.5658  157.3969   -5.3183 H   0  0  0  0  0  0  0  0  0  0  0  0
   52.0094  157.0093   -4.6290 H   0  0  0  0  0  0  0  0  0  0  0  0
   60.5005  159.1219   -6.8212 H   0  0  0  0  0  0  0  0  0  0  0  0
  1 13  1  0  0  0  0
  1 14  3  0  0  0  0
  2  9  1  0  0  0  0
  2 16  1  0  0  0  0
  2 18  2  0  0  0  0
  3  4  1  0  0  0  0
  3 10  1  0  0  0  0
  4 10  1  0  0  0  0
  5  7  1  0  0  0  0
  5  9  1  0  0  0  0
  6  8  1  0  0  0  0
  6  9  1  0  0  0  0
  7 15  1  0  0  0  0
  8 15  1  0  0  0  0
 10 17  1  0  0  0  0
 11 13  1  0  0  0  0
 12 13  1  0  0  0  0
 12 15  1  0  0  0  0
 13 17  1  0  0  0  0
  3 19  1  0  0  0  0
  3 20  1  0  0  0  0
  4 21  1  0  0  0  0
  4 22  1  0  0  0  0
  5 23  1  0  0  0  0
  5 24  1  0  0  0  0
  6 25  1  0  0  0  0
  6 26  1  0  0  0  0
  7 27  1  0  0  0  0
  7 28  1  0  0  0  0
  8 29  1  0  0  0  0
  8 30  1  0  0  0  0
  9 31  1  0  0  0  0
 10 32  1  0  0  0  0
 11 33  1  0  0  0  0
 11 34  1  0  0  0  0
 11 35  1  0  0  0  0
 12 36  1  0  0  0  0
 12 37  1  0  0  0  0
 16 38  1  0  0  0  0
 16 39  1  0  0  0  0
 17 40  1  0  0  0  0
M  END
> <FRED Chemgauss4 score>
-7.423612

$$$$
C63130397	P96934657
  -OEChem-05122015073D

 33 34  0     0  0  0  0  0  0999 V2000
   53.3124  155.9613   -5.4255 C   0  0  0  0  0  0  0  0  0  0  0  0
   55.2297  156.9422   -4.3307 C   0  0  0  0  0  0  0  0  0  0  0  0
   54.0870  154.8627   -5.7978 C   0  0  0  0  0  0  0  0  0  0  0  0
   56.0044  155.8436   -4.7029 C   0  0  0  0  0  0  0  0  0  0  0  0
   59.5075  156.3047   -7.9190 C   0  0  0  0  0  0  0  0  0  0  0  0
   53.8837  157.0011   -4.6919 C   0  0  0  0  0  0  0  0  0  0  0  0
   55.4330  154.8038   -5.4365 C   0  0  0  0  0  0  0  0  0  0  0  0
   60.6963  156.9868   -8.2778 C   0  0  0  0  0  0  0  0  0  0  0  0
   59.8653  155.0345   -7.5240 C   0  0  0  0  0  0  0  0  0  0  0  0
   61.7443  156.1125   -8.0914 C   0  0  0  0  0  0  0  0  0  0  0  0
   58.9868  153.9321   -7.0550 C   0  0  0  0  0  0  0  0  0  0  0  0
   57.0767  152.4587   -7.6351 C   0  0  0  0  0  0  0  0  0  0  0  0
   55.8342  153.0681   -7.0120 C   0  0  0  0  0  0  0  0  0  0  0  0
   61.2273  154.9289   -7.6332 N   0  0  0  0  0  0  0  0  0  0  0  0
   53.1005  158.1119   -4.3156 N   0  0  0  0  0  0  0  0  0  0  0  0
   58.0455  153.5301   -7.9612 N   0  0  0  0  0  0  0  0  0  0  0  0
   59.1405  153.4830   -5.9222 O   0  0  0  0  0  0  0  0  0  0  0  0
   56.1889  153.7318   -5.7998 O   0  0  0  0  0  0  0  0  0  0  0  0
   60.7648  158.5909   -8.8314 Cl  0  0  0  0  0  0  0  0  0  0  0  0
   63.4199  156.2353   -8.3113 Cl  0  0  0  0  0  0  0  0  0  0  0  0
   52.2645  155.9969   -5.7123 H   0  0  0  0  0  0  0  0  0  0  0  0
   55.6851  157.7470   -3.7591 H   0  0  0  0  0  0  0  0  0  0  0  0
   53.6363  154.0558   -6.3692 H   0  0  0  0  0  0  0  0  0  0  0  0
   57.0523  155.8034   -4.4186 H   0  0  0  0  0  0  0  0  0  0  0  0
   58.4988  156.6953   -7.9446 H   0  0  0  0  0  0  0  0  0  0  0  0
   57.5606  151.7558   -6.9495 H   0  0  0  0  0  0  0  0  0  0  0  0
   56.8210  151.9364   -8.5620 H   0  0  0  0  0  0  0  0  0  0  0  0
   55.1131  152.2818   -6.7681 H   0  0  0  0  0  0  0  0  0  0  0  0
   55.3603  153.7913   -7.6837 H   0  0  0  0  0  0  0  0  0  0  0  0
   61.7708  154.1061   -7.4110 H   0  0  0  0  0  0  0  0  0  0  0  0
   52.1497  158.1644   -4.6208 H   0  0  0  0  0  0  0  0  0  0  0  0
   53.5333  158.8720   -3.8309 H   0  0  0  0  0  0  0  0  0  0  0  0
   57.9145  153.9668   -8.8502 H   0  0  0  0  0  0  0  0  0  0  0  0
  1  3  1  0  0  0  0
  1  6  2  0  0  0  0
  2  4  2  0  0  0  0
  2  6  1  0  0  0  0
  3  7  2  0  0  0  0
  4  7  1  0  0  0  0
  5  8  1  0  0  0  0
  5  9  2  0  0  0  0
  6 15  1  0  0  0  0
  7 18  1  0  0  0  0
  8 10  2  0  0  0  0
  8 19  1  0  0  0  0
  9 11  1  0  0  0  0
  9 14  1  0  0  0  0
 10 14  1  0  0  0  0
 10 20  1  0  0  0  0
 11 16  1  0  0  0  0
 11 17  2  0  0  0  0
 12 13  1  0  0  0  0
 12 16  1  0  0  0  0
 13 18  1  0  0  0  0
  1 21  1  0  0  0  0
  2 22  1  0  0  0  0
  3 23  1  0  0  0  0
  4 24  1  0  0  0  0
  5 25  1  0  0  0  0
 12 26  1  0  0  0  0
 12 27  1  0  0  0  0
 13 28  1  0  0  0  0
 13 29  1  0  0  0  0
 14 30  1  0  0  0  0
 15 31  1  0  0  0  0
 15 32  1  0  0  0  0
 16 33  1  0  0  0  0
M  END
> <FRED Chemgauss4 score>
-7.415832

$$$$
C87446021	P136813038
  -OEChem-05122015073D

 30 31  0     1  0  0  0  0  0999 V2000
   55.3581  159.6283   -3.5320 C   0  0  0  0  0  0  0  0  0  0  0  0
   56.7780  161.1347   -3.9925 C   0  0  0  0  0  0  0  0  0  0  0  0
   54.7572  158.3296   -3.1882 C   0  0  0  0  0  0  0  0  0  0  0  0
   56.2221  155.9929   -5.7966 C   0  0  0  0  0  0  0  0  0  0  0  0
   55.0685  155.0088   -5.9961 C   0  0  0  0  0  0  0  0  0  0  0  0
   55.7353  157.3517   -5.3111 C   0  0  0  0  0  0  0  0  0  0  0  0
   54.4233  155.9398   -3.7085 C   0  0  0  0  0  0  0  0  0  0  0  0
   53.9778  155.1360   -4.9274 C   0  0  1  0  0  0  0  0  0  0  0  0
   58.0413  161.8186   -4.2589 C   0  0  0  0  0  0  0  0  0  0  0  0
   55.5725  161.7361   -4.0195 N   0  5  0  0  0  0  0  0  0  0  0  0
   56.6722  159.8329   -3.6940 N   0  0  0  0  0  0  0  0  0  0  0  0
   54.6535  160.7613   -3.7207 N   0  0  0  0  0  0  0  0  0  0  0  0
   54.9576  157.2578   -4.0664 N   0  0  0  0  0  0  0  0  0  0  0  0
   52.7873  155.8130   -5.5258 N   0  3  0  0  0  0  0  0  0  0  0  0
   54.1128  158.2819   -2.1415 O   0  0  0  0  0  0  0  0  0  0  0  0
   56.9413  155.5763   -5.0764 H   0  0  0  0  0  0  0  0  0  0  0  0
   56.7686  156.1155   -6.7442 H   0  0  0  0  0  0  0  0  0  0  0  0
   54.6423  155.1377   -7.0006 H   0  0  0  0  0  0  0  0  0  0  0  0
   55.4718  153.9862   -5.9613 H   0  0  0  0  0  0  0  0  0  0  0  0
   56.5900  158.0179   -5.1067 H   0  0  0  0  0  0  0  0  0  0  0  0
   55.1460  157.8374   -6.1040 H   0  0  0  0  0  0  0  0  0  0  0  0
   53.6002  156.0060   -2.9810 H   0  0  0  0  0  0  0  0  0  0  0  0
   55.2368  155.4034   -3.1910 H   0  0  0  0  0  0  0  0  0  0  0  0
   53.6232  154.1416   -4.6257 H   0  0  0  0  0  0  0  0  0  0  0  0
   58.4872  162.2357   -3.3345 H   0  0  0  0  0  0  0  0  0  0  0  0
   58.8030  161.1515   -4.7115 H   0  0  0  0  0  0  0  0  0  0  0  0
   57.9307  162.6610   -4.9720 H   0  0  0  0  0  0  0  0  0  0  0  0
   51.9231  155.4235   -5.1424 H   0  0  0  0  0  0  0  0  0  0  0  0
   52.7763  155.6866   -6.5406 H   0  0  0  0  0  0  0  0  0  0  0  0
   52.8067  156.8156   -5.3252 H   0  0  0  0  0  0  0  0  0  0  0  0
  1  3  1  0  0  0  0
  1 11  1  0  0  0  0
  1 12  2  0  0  0  0
  2  9  1  0  0  0  0
  2 10  1  0  0  0  0
  2 11  2  0  0  0  0
  3 13  1  0  0  0  0
  3 15  2  0  0  0  0
  4  5  1  0  0  0  0
  4  6  1  0  0  0  0
  5  8  1  0  0  0  0
  6 13  1  0  0  0  0
  7  8  1  0  0  0  0
  7 13  1  0  0  0  0
  8 14  1  0  0  0  0
 10 12  1  0  0  0  0
  4 16  1  0  0  0  0
  4 17  1  0  0  0  0
  5 18  1  0  0  0  0
  5 19  1  0  0  0  0
  6 20  1  0  0  0  0
  6 21  1  0  0  0  0
  7 22  1  0  0  0  0
  7 23  1  0  0  0  0
  8 24  1  0  0  0  0
  9 25  1  0  0  0  0
  9 26  1  0  0  0  0
  9 27  1  0  0  0  0
 14 28  1  0  0  0  0
 14 29  1  0  0  0  0
 14 30  1  0  0  0  0
M  CHG  2  10  -1  14   1
M  END
> <FRED Chemgauss4 score>
-7.414302

$$$$
C16889838	P25447432
  -OEChem-05122015073D

 32 32  0     1  0  0  0  0  0999 V2000
   53.3584  155.0230   -3.9982 C   0  0  1  0  0  0  0  0  0  0  0  0
   54.1927  155.4312   -5.2125 C   0  0  1  0  0  0  0  0  0  0  0  0
   53.6247  155.9456   -2.8086 C   0  0  2  0  0  0  0  0  0  0  0  0
   55.6618  155.6154   -4.8250 C   0  0  1  0  0  0  0  0  0  0  0  0
   55.1237  156.1266   -2.5700 C   0  0  1  0  0  0  0  0  0  0  0  0
   58.8581  156.9315   -6.6498 C   0  0  0  0  0  0  0  0  0  0  0  0
   56.5034  156.1396   -5.9845 C   0  0  1  0  0  0  0  0  0  0  0  0
   57.8402  156.7383   -5.5281 C   0  0  2  0  0  0  0  0  0  0  0  0
   55.7703  156.5645   -3.7627 O   0  0  0  0  0  0  0  0  0  0  0  0
   51.9762  155.1000   -4.3513 O   0  0  0  0  0  0  0  0  0  0  0  0
   54.0633  154.4117   -6.2002 O   0  0  0  0  0  0  0  0  0  0  0  0
   53.0240  155.3686   -1.6500 O   0  0  0  0  0  0  0  0  0  0  0  0
   55.2878  157.1042   -1.5435 O   0  0  0  0  0  0  0  0  0  0  0  0
   60.0360  157.5189   -6.1033 O   0  0  0  0  0  0  0  0  0  0  0  0
   56.7239  155.0592   -6.8877 O   0  0  0  0  0  0  0  0  0  0  0  0
   57.5800  158.0299   -4.9665 O   0  0  0  0  0  0  0  0  0  0  0  0
   53.5524  153.9762   -3.7328 H   0  0  0  0  0  0  0  0  0  0  0  0
   53.7807  156.3580   -5.6322 H   0  0  0  0  0  0  0  0  0  0  0  0
   53.1382  156.9155   -2.9720 H   0  0  0  0  0  0  0  0  0  0  0  0
   56.0975  154.6601   -4.5034 H   0  0  0  0  0  0  0  0  0  0  0  0
   55.5789  155.1946   -2.2118 H   0  0  0  0  0  0  0  0  0  0  0  0
   58.4819  157.6034   -7.4255 H   0  0  0  0  0  0  0  0  0  0  0  0
   59.1437  155.9754   -7.1000 H   0  0  0  0  0  0  0  0  0  0  0  0
   55.9228  156.8946   -6.5252 H   0  0  0  0  0  0  0  0  0  0  0  0
   58.2784  156.1320   -4.7265 H   0  0  0  0  0  0  0  0  0  0  0  0
   51.8096  156.0208   -4.6023 H   0  0  0  0  0  0  0  0  0  0  0  0
   54.3953  153.5941   -5.7982 H   0  0  0  0  0  0  0  0  0  0  0  0
   53.4406  154.5020   -1.5274 H   0  0  0  0  0  0  0  0  0  0  0  0
   56.2425  157.2031   -1.4088 H   0  0  0  0  0  0  0  0  0  0  0  0
   60.6579  157.6269   -6.8396 H   0  0  0  0  0  0  0  0  0  0  0  0
   55.8491  154.7649   -7.1849 H   0  0  0  0  0  0  0  0  0  0  0  0
   58.4293  158.3558   -4.6362 H   0  0  0  0  0  0  0  0  0  0  0  0
  1  2  1  0  0  0  0
  1  3  1  0  0  0  0
  1 10  1  0  0  0  0
  2  4  1  0  0  0  0
  2 11  1  0  0  0  0
  3  5  1  0  0  0  0
  3 12  1  0  0  0  0
  4  7  1  0  0  0  0
  4  9  1  0  0  0  0
  5  9  1  0  0  0  0
  5 13  1  0  0  0  0
  6  8  1  0  0  0  0
  6 14  1  0  0  0  0
  7  8  1  0  0  0  0
  7 15  1  0  0  0  0
  8 16  1  0  0  0  0
  1 17  1  0  0  0  0
  2 18  1  0  0  0  0
  3 19  1  0  0  0  0
  4 20  1  0  0  0  0
  5 21  1  0  0  0  0
  6 22  1  0  0  0  0
  6 23  1  0  0  0  0
  7 24  1  0  0  0  0
  8 25  1  0  0  0  0
 10 26  1  0  0  0  0
 11 27  1  0  0  0  0
 12 28  1  0  0  0  0
 13 29  1  0  0  0  0
 14 30  1  0  0  0  0
 15 31  1  0  0  0  0
 16 32  1  0  0  0  0
M  END
> <FRED Chemgauss4 score>
-7.407768

$$$$
chloroalanine	P10000035
  -OEChem-05122015073D

 13 12  0     1  0  0  0  0  0999 V2000
   53.2994  156.0705   -3.4571 C   0  0  0  0  0  0  0  0  0  0  0  0
   54.4829  154.4440   -5.0969 C   0  0  0  0  0  0  0  0  0  0  0  0
   53.8373  155.8103   -4.8752 C   0  0  1  0  0  0  0  0  0  0  0  0
   52.8239  156.0295   -5.9563 N   0  3  0  0  0  0  0  0  0  0  0  0
   52.3811  155.2870   -3.0807 O   0  5  0  0  0  0  0  0  0  0  0  0
   53.8134  157.0466   -2.8419 O   0  0  0  0  0  0  0  0  0  0  0  0
   55.5549  154.4245   -6.5227 Cl  0  0  0  0  0  0  0  0  0  0  0  0
   55.0872  154.1501   -4.2323 H   0  0  0  0  0  0  0  0  0  0  0  0
   53.7262  153.6687   -5.2511 H   0  0  0  0  0  0  0  0  0  0  0  0
   54.5990  156.5797   -5.0527 H   0  0  0  0  0  0  0  0  0  0  0  0
   52.8332  155.2476   -6.6120 H   0  0  0  0  0  0  0  0  0  0  0  0
   53.0340  156.8879   -6.4669 H   0  0  0  0  0  0  0  0  0  0  0  0
   51.8897  156.1082   -5.5530 H   0  0  0  0  0  0  0  0  0  0  0  0
  1  3  1  0  0  0  0
  1  5  1  0  0  0  0
  1  6  2  0  0  0  0
  2  3  1  0  0  0  0
  2  7  1  0  0  0  0
  3  4  1  0  0  0  0
  2  8  1  0  0  0  0
  2  9  1  0  0  0  0
  3 10  1  0  0  0  0
  4 11  1  0  0  0  0
  4 12  1  0  0  0  0
  4 13  1  0  0  0  0
M  CHG  2   4   1   5  -1
M  END
> <FRED Chemgauss4 score>
-7.402884

$$$$
C97861463	P155326145
  -OEChem-05122015073D

 42 44  0     1  0  0  0  0  0999 V2000
   59.9924  156.9815   -8.7078 C   0  0  0  0  0  0  0  0  0  0  0  0
   59.4166  160.5142   -6.5295 C   0  0  0  0  0  0  0  0  0  0  0  0
   60.7020  160.0765   -6.8583 C   0  0  0  0  0  0  0  0  0  0  0  0
   61.2817  156.5739   -9.0184 C   0  0  0  0  0  0  0  0  0  0  0  0
   58.4890  158.6004   -7.6492 C   0  0  0  0  0  0  0  0  0  0  0  0
   59.7820  158.1605   -7.9799 C   0  0  0  0  0  0  0  0  0  0  0  0
   58.3085  159.7754   -6.9252 C   0  0  0  0  0  0  0  0  0  0  0  0
   60.9116  158.9053   -7.5812 C   0  0  0  0  0  0  0  0  0  0  0  0
   62.3239  157.3683   -8.5853 C   0  0  0  0  0  0  0  0  0  0  0  0
   57.3604  159.8816   -1.7099 C   0  0  0  0  0  0  0  0  0  0  0  0
   57.3915  160.7989   -2.9299 C   0  0  0  0  0  0  0  0  0  0  0  0
   55.9827  159.2599   -1.5107 C   0  0  0  0  0  0  0  0  0  0  0  0
   55.5325  159.4546   -3.9866 C   0  0  0  0  0  0  0  0  0  0  0  0
   56.9142  160.0785   -4.1947 C   0  0  1  0  0  0  0  0  0  0  0  0
   55.5055  158.5347   -2.7666 C   0  0  2  0  0  0  0  0  0  0  0  0
   63.7276  156.9688   -8.8972 C   0  0  0  0  0  0  0  0  0  0  0  0
   56.9253  160.2417   -6.5738 C   0  0  0  0  0  0  0  0  0  0  0  0
   62.1640  158.5123   -7.8813 N   0  0  0  0  0  0  0  0  0  0  0  0
   56.9018  160.9811   -5.3215 N   0  0  0  0  0  0  0  0  0  0  0  0
   54.1779  158.0706   -2.5461 O   0  0  0  0  0  0  0  0  0  0  0  0
   59.1518  156.3746   -9.0363 H   0  0  0  0  0  0  0  0  0  0  0  0
   59.2948  161.4342   -5.9639 H   0  0  0  0  0  0  0  0  0  0  0  0
   61.5535  160.6730   -6.5359 H   0  0  0  0  0  0  0  0  0  0  0  0
   61.4526  155.6632   -9.5818 H   0  0  0  0  0  0  0  0  0  0  0  0
   57.6198  158.0229   -7.9587 H   0  0  0  0  0  0  0  0  0  0  0  0
   58.1059  159.0863   -1.8319 H   0  0  0  0  0  0  0  0  0  0  0  0
   57.6424  160.4480   -0.8151 H   0  0  0  0  0  0  0  0  0  0  0  0
   56.7568  161.6731   -2.7322 H   0  0  0  0  0  0  0  0  0  0  0  0
   58.4118  161.1756   -3.0725 H   0  0  0  0  0  0  0  0  0  0  0  0
   56.0039  158.5616   -0.6654 H   0  0  0  0  0  0  0  0  0  0  0  0
   55.2585  160.0373   -1.2342 H   0  0  0  0  0  0  0  0  0  0  0  0
   54.7704  160.2373   -3.8657 H   0  0  0  0  0  0  0  0  0  0  0  0
   55.2291  158.8873   -4.8763 H   0  0  0  0  0  0  0  0  0  0  0  0
   57.6274  159.2658   -4.4175 H   0  0  0  0  0  0  0  0  0  0  0  0
   56.1402  157.6582   -2.9459 H   0  0  0  0  0  0  0  0  0  0  0  0
   64.0431  157.4013   -9.8542 H   0  0  0  0  0  0  0  0  0  0  0  0
   64.4201  157.3075   -8.1162 H   0  0  0  0  0  0  0  0  0  0  0  0
   63.8259  155.8774   -8.9583 H   0  0  0  0  0  0  0  0  0  0  0  0
   56.5269  160.8943   -7.3583 H   0  0  0  0  0  0  0  0  0  0  0  0
   56.2382  159.3946   -6.4754 H   0  0  0  0  0  0  0  0  0  0  0  0
   56.0590  161.5499   -5.2790 H   0  0  0  0  0  0  0  0  0  0  0  0
   53.9041  157.6162   -3.3584 H   0  0  0  0  0  0  0  0  0  0  0  0
  1  4  2  0  0  0  0
  1  6  1  0  0  0  0
  2  3  2  0  0  0  0
  2  7  1  0  0  0  0
  3  8  1  0  0  0  0
  4  9  1  0  0  0  0
  5  6  1  0  0  0  0
  5  7  2  0  0  0  0
  6  8  2  0  0  0  0
  7 17  1  0  0  0  0
  8 18  1  0  0  0  0
  9 16  1  0  0  0  0
  9 18  2  0  0  0  0
 10 11  1  0  0  0  0
 10 12  1  0  0  0  0
 11 14  1  0  0  0  0
 12 15  1  0  0  0  0
 13 14  1  0  0  0  0
 13 15  1  0  0  0  0
 14 19  1  0  0  0  0
 15 20  1  0  0  0  0
 17 19  1  0  0  0  0
  1 21  1  0  0  0  0
  2 22  1  0  0  0  0
  3 23  1  0  0  0  0
  4 24  1  0  0  0  0
  5 25  1  0  0  0  0
 10 26  1  0  0  0  0
 10 27  1  0  0  0  0
 11 28  1  0  0  0  0
 11 29  1  0  0  0  0
 12 30  1  0  0  0  0
 12 31  1  0  0  0  0
 13 32  1  0  0  0  0
 13 33  1  0  0  0  0
 14 34  1  0  0  0  0
 15 35  1  0  0  0  0
 16 36  1  0  0  0  0
 16 37  1  0  0  0  0
 16 38  1  0  0  0  0
 17 39  1  0  0  0  0
 17 40  1  0  0  0  0
 19 41  1  0  0  0  0
 20 42  1  0  0  0  0
M  END
> <FRED Chemgauss4 score>
-7.399121

$$$$
C70394015	P108532505
  -OEChem-05122015073D

 39 40  0     1  0  0  0  0  0999 V2000
   61.4742  163.1733   -4.9980 C   0  0  0  0  0  0  0  0  0  0  0  0
   61.3588  162.6436   -6.2831 C   0  0  0  0  0  0  0  0  0  0  0  0
   60.7743  162.5941   -3.9395 C   0  0  0  0  0  0  0  0  0  0  0  0
   59.8436  160.9556   -5.4513 C   0  0  0  0  0  0  0  0  0  0  0  0
   60.5435  161.5347   -6.5098 C   0  0  0  0  0  0  0  0  0  0  0  0
   59.9590  161.4853   -4.1662 C   0  0  0  0  0  0  0  0  0  0  0  0
   54.2352  159.1494   -3.6110 C   0  0  0  0  0  0  0  0  0  0  0  0
   55.6418  162.7173   -3.5948 C   0  0  0  0  0  0  0  0  0  0  0  0
   54.6163  161.5959   -3.4545 C   0  0  0  0  0  0  0  0  0  0  0  0
   56.9170  162.4028   -2.8207 C   0  0  0  0  0  0  0  0  0  0  0  0
   56.5133  159.9736   -3.0792 C   0  0  0  0  0  0  0  0  0  0  0  0
   55.2243  160.2498   -3.8537 C   0  0  1  0  0  0  0  0  0  0  0  0
   58.9765  159.7703   -5.7249 C   0  0  0  0  0  0  0  0  0  0  0  0
   57.4733  161.0983   -3.2842 N   0  0  2  0  0  0  0  0  0  0  0  0
   53.4152  158.8942   -4.6846 N   0  0  0  0  0  0  0  0  0  0  0  0
   57.7466  160.1338   -6.3797 N   0  0  0  0  0  0  0  0  0  0  0  0
   54.1909  158.5342   -2.5485 O   0  0  0  0  0  0  0  0  0  0  0  0
   59.3120  159.3501   -2.8262 O   0  0  0  0  0  0  0  0  0  0  0  0
   59.3893  161.5638   -1.6257 O   0  0  0  0  0  0  0  0  0  0  0  0
   60.4392  161.0341   -7.7490 F   0  0  0  0  0  0  0  0  0  0  0  0
   59.0874  160.7791   -2.8033 S   0  0  0  0  0  0  0  0  0  0  0  0
   62.1103  164.0359   -4.8214 H   0  0  0  0  0  0  0  0  0  0  0  0
   61.9034  163.0947   -7.1076 H   0  0  0  0  0  0  0  0  0  0  0  0
   60.8708  163.0172   -2.9431 H   0  0  0  0  0  0  0  0  0  0  0  0
   55.8806  162.8684   -4.6533 H   0  0  0  0  0  0  0  0  0  0  0  0
   55.2115  163.6565   -3.2266 H   0  0  0  0  0  0  0  0  0  0  0  0
   54.2471  161.5655   -2.4290 H   0  0  0  0  0  0  0  0  0  0  0  0
   53.7677  161.8088   -4.1072 H   0  0  0  0  0  0  0  0  0  0  0  0
   57.6629  163.1945   -2.9601 H   0  0  0  0  0  0  0  0  0  0  0  0
   56.6779  162.3396   -1.7531 H   0  0  0  0  0  0  0  0  0  0  0  0
   56.2919  159.8814   -2.0138 H   0  0  0  0  0  0  0  0  0  0  0  0
   56.9697  159.0441   -3.4267 H   0  0  0  0  0  0  0  0  0  0  0  0
   55.4349  160.2499   -4.9146 H   0  0  0  0  0  0  0  0  0  0  0  0
   59.4927  159.0448   -6.3677 H   0  0  0  0  0  0  0  0  0  0  0  0
   58.7129  159.2444   -4.7980 H   0  0  0  0  0  0  0  0  0  0  0  0
   53.5325  159.4449   -5.5287 H   0  0  0  0  0  0  0  0  0  0  0  0
   52.6973  158.1771   -4.6667 H   0  0  0  0  0  0  0  0  0  0  0  0
   56.9407  159.5403   -6.2719 H   0  0  0  0  0  0  0  0  0  0  0  0
   57.7624  160.8486   -7.0885 H   0  0  0  0  0  0  0  0  0  0  0  0
  1  2  1  0  0  0  0
  1  3  2  0  0  0  0
  2  5  2  0  0  0  0
  3  6  1  0  0  0  0
  4  5  1  0  0  0  0
  4  6  2  0  0  0  0
  4 13  1  0  0  0  0
  5 20  1  0  0  0  0
  6 21  1  0  0  0  0
  7 12  1  0  0  0  0
  7 15  1  0  0  0  0
  7 17  2  0  0  0  0
  8  9  1  0  0  0  0
  8 10  1  0  0  0  0
  9 12  1  0  0  0  0
 10 14  1  0  0  0  0
 11 12  1  0  0  0  0
 11 14  1  0  0  0  0
 13 16  1  0  0  0  0
 14 21  1  0  0  0  0
 18 21  2  0  0  0  0
 19 21  2  0  0  0  0
  1 22  1  0  0  0  0
  2 23  1  0  0  0  0
  3 24  1  0  0  0  0
  8 25  1  0  0  0  0
  8 26  1  0  0  0  0
  9 27  1  0  0  0  0
  9 28  1  0  0  0  0
 10 29  1  0  0  0  0
 10 30  1  0  0  0  0
 11 31  1  0  0  0  0
 11 32  1  0  0  0  0
 12 33  1  0  0  0  0
 13 34  1  0  0  0  0
 13 35  1  0  0  0  0
 15 36  1  0  0  0  0
 15 37  1  0  0  0  0
 16 38  1  0  0  0  0
 16 39  1  0  0  0  0
M  END
> <FRED Chemgauss4 score>
-7.398969

$$$$
C86553403	P135506298
  -OEChem-05122015073D

 28 28  0     1  0  0  0  0  0999 V2000
   56.3439  156.8807   -6.5096 C   0  0  0  0  0  0  0  0  0  0  0  0
   55.3668  155.8803   -6.3475 C   0  0  0  0  0  0  0  0  0  0  0  0
   56.0827  154.7109   -6.2670 C   0  0  0  0  0  0  0  0  0  0  0  0
   55.6466  153.3121   -6.0958 C   0  0  0  0  0  0  0  0  0  0  0  0
   58.5390  154.1876   -6.3565 C   0  0  0  0  0  0  0  0  0  0  0  0
   54.0562  156.1184   -3.7025 C   0  0  0  0  0  0  0  0  0  0  0  0
   53.8671  156.0592   -6.2781 C   0  0  1  0  0  0  0  0  0  0  0  0
   53.2495  155.6562   -4.9218 C   0  0  2  0  0  0  0  0  0  0  0  0
   57.5859  156.3897   -6.5309 N   0  0  0  0  0  0  0  0  0  0  0  0
   57.3940  155.0680   -6.3810 N   0  0  0  0  0  0  0  0  0  0  0  0
   51.8979  156.1750   -4.8293 N   0  0  0  0  0  0  0  0  0  0  0  0
   53.7228  155.3707   -2.5400 O   0  0  0  0  0  0  0  0  0  0  0  0
   53.5979  157.4428   -6.5279 O   0  0  0  0  0  0  0  0  0  0  0  0
   56.2055  157.9474   -6.6131 H   0  0  0  0  0  0  0  0  0  0  0  0
   55.4696  152.8280   -7.0705 H   0  0  0  0  0  0  0  0  0  0  0  0
   56.3943  152.7081   -5.5533 H   0  0  0  0  0  0  0  0  0  0  0  0
   54.7134  153.2374   -5.5109 H   0  0  0  0  0  0  0  0  0  0  0  0
   58.7458  153.8746   -7.3833 H   0  0  0  0  0  0  0  0  0  0  0  0
   59.3983  154.7193   -5.9385 H   0  0  0  0  0  0  0  0  0  0  0  0
   58.3147  153.3204   -5.7292 H   0  0  0  0  0  0  0  0  0  0  0  0
   53.8577  157.1723   -3.4840 H   0  0  0  0  0  0  0  0  0  0  0  0
   55.1331  156.0174   -3.8776 H   0  0  0  0  0  0  0  0  0  0  0  0
   53.3866  155.5011   -7.0914 H   0  0  0  0  0  0  0  0  0  0  0  0
   53.1324  154.5670   -4.8700 H   0  0  0  0  0  0  0  0  0  0  0  0
   51.4880  156.2838   -3.9220 H   0  0  0  0  0  0  0  0  0  0  0  0
   51.3432  156.2166   -5.6622 H   0  0  0  0  0  0  0  0  0  0  0  0
   54.2697  155.7188   -1.8175 H   0  0  0  0  0  0  0  0  0  0  0  0
   54.0573  157.9368   -5.8337 H   0  0  0  0  0  0  0  0  0  0  0  0
  1  2  1  0  0  0  0
  1  9  2  0  0  0  0
  2  3  2  0  0  0  0
  2  7  1  0  0  0  0
  3  4  1  0  0  0  0
  3 10  1  0  0  0  0
  5 10  1  0  0  0  0
  6  8  1  0  0  0  0
  6 12  1  0  0  0  0
  7  8  1  0  0  0  0
  7 13  1  0  0  0  0
  8 11  1  0  0  0  0
  9 10  1  0  0  0  0
  1 14  1  0  0  0  0
  4 15  1  0  0  0  0
  4 16  1  0  0  0  0
  4 17  1  0  0  0  0
  5 18  1  0  0  0  0
  5 19  1  0  0  0  0
  5 20  1  0  0  0  0
  6 21  1  0  0  0  0
  6 22  1  0  0  0  0
  7 23  1  0  0  0  0
  8 24  1  0  0  0  0
 11 25  1  0  0  0  0
 11 26  1  0  0  0  0
 12 27  1  0  0  0  0
 13 28  1  0  0  0  0
M  END
> <FRED Chemgauss4 score>
-7.395873

$$$$
C97177845	P153861867
  -OEChem-05122015073D

 44 44  0     1  0  0  0  0  0999 V2000
   58.8667  158.5686   -8.5190 C   0  0  0  0  0  0  0  0  0  0  0  0
   59.7398  157.8168   -7.7687 C   0  0  0  0  0  0  0  0  0  0  0  0
   59.2788  159.7352   -6.7871 C   0  0  0  0  0  0  0  0  0  0  0  0
   56.6849  158.4601   -4.7315 C   0  0  0  0  0  0  0  0  0  0  0  0
   53.8312  155.6726   -5.3469 C   0  0  0  0  0  0  0  0  0  0  0  0
   60.8649  158.2084   -5.5706 C   0  0  0  0  0  0  0  0  0  0  0  0
   57.9983  161.6438   -5.6430 C   0  0  0  0  0  0  0  0  0  0  0  0
   56.8937  160.9440   -4.8470 C   0  0  0  0  0  0  0  0  0  0  0  0
   56.3268  156.0160   -5.0504 C   0  0  0  0  0  0  0  0  0  0  0  0
   54.7517  156.3391   -3.0856 C   0  0  0  0  0  0  0  0  0  0  0  0
   55.0190  155.5687   -4.3843 C   0  0  1  0  0  0  0  0  0  0  0  0
   59.3181  160.8354   -5.7259 C   0  0  2  0  0  0  0  0  0  0  0  0
   60.4991  161.7754   -5.9930 C   0  0  0  0  0  0  0  0  0  0  0  0
   58.5840  159.7618   -7.9026 N   0  0  0  0  0  0  0  0  0  0  0  0
   59.9951  158.5773   -6.6625 N   0  0  0  0  0  0  0  0  0  0  0  0
   56.5627  159.6672   -5.4213 N   0  0  0  0  0  0  0  0  0  0  0  0
   56.2977  157.3806   -5.5215 N   0  0  0  0  0  0  0  0  0  0  0  0
   57.0837  158.3626   -3.5717 O   0  0  0  0  0  0  0  0  0  0  0  0
   53.6017  155.8084   -2.4387 O   0  0  0  0  0  0  0  0  0  0  0  0
   59.5439  160.2623   -4.4299 O   0  0  0  0  0  0  0  0  0  0  0  0
   60.3893  162.3563   -7.2107 F   0  0  0  0  0  0  0  0  0  0  0  0
   60.5568  162.7705   -5.0791 F   0  0  0  0  0  0  0  0  0  0  0  0
   61.6831  161.1256   -5.9671 F   0  0  0  0  0  0  0  0  0  0  0  0
   58.4274  158.3114   -9.4718 H   0  0  0  0  0  0  0  0  0  0  0  0
   60.1844  156.8432   -7.9215 H   0  0  0  0  0  0  0  0  0  0  0  0
   53.6620  156.7111   -5.6500 H   0  0  0  0  0  0  0  0  0  0  0  0
   52.9128  155.3151   -4.8693 H   0  0  0  0  0  0  0  0  0  0  0  0
   53.9951  155.0819   -6.2543 H   0  0  0  0  0  0  0  0  0  0  0  0
   61.8711  158.5654   -5.8055 H   0  0  0  0  0  0  0  0  0  0  0  0
   60.5029  158.6665   -4.6459 H   0  0  0  0  0  0  0  0  0  0  0  0
   60.8607  157.1208   -5.4569 H   0  0  0  0  0  0  0  0  0  0  0  0
   58.2004  162.6059   -5.1514 H   0  0  0  0  0  0  0  0  0  0  0  0
   57.6245  161.8923   -6.6440 H   0  0  0  0  0  0  0  0  0  0  0  0
   57.2019  160.7579   -3.8142 H   0  0  0  0  0  0  0  0  0  0  0  0
   55.9745  161.5374   -4.8340 H   0  0  0  0  0  0  0  0  0  0  0  0
   57.1624  155.9344   -4.3471 H   0  0  0  0  0  0  0  0  0  0  0  0
   56.5555  155.3806   -5.9126 H   0  0  0  0  0  0  0  0  0  0  0  0
   54.5768  157.4025   -3.2797 H   0  0  0  0  0  0  0  0  0  0  0  0
   55.6002  156.2427   -2.4001 H   0  0  0  0  0  0  0  0  0  0  0  0
   55.1234  154.5055   -4.1289 H   0  0  0  0  0  0  0  0  0  0  0  0
   56.2218  159.6429   -6.3803 H   0  0  0  0  0  0  0  0  0  0  0  0
   55.9373  157.5610   -6.4533 H   0  0  0  0  0  0  0  0  0  0  0  0
   53.4744  156.3255   -1.6272 H   0  0  0  0  0  0  0  0  0  0  0  0
   58.8052  159.6581   -4.2734 H   0  0  0  0  0  0  0  0  0  0  0  0
  1  2  2  0  0  0  0
  1 14  1  0  0  0  0
  2 15  1  0  0  0  0
  3 12  1  0  0  0  0
  3 14  2  0  0  0  0
  3 15  1  0  0  0  0
  4 16  1  0  0  0  0
  4 17  1  0  0  0  0
  4 18  2  0  0  0  0
  5 11  1  0  0  0  0
  6 15  1  0  0  0  0
  7  8  1  0  0  0  0
  7 12  1  0  0  0  0
  8 16  1  0  0  0  0
  9 11  1  0  0  0  0
  9 17  1  0  0  0  0
 10 11  1  0  0  0  0
 10 19  1  0  0  0  0
 12 13  1  0  0  0  0
 12 20  1  0  0  0  0
 13 21  1  0  0  0  0
 13 22  1  0  0  0  0
 13 23  1  0  0  0  0
  1 24  1  0  0  0  0
  2 25  1  0  0  0  0
  5 26  1  0  0  0  0
  5 27  1  0  0  0  0
  5 28  1  0  0  0  0
  6 29  1  0  0  0  0
  6 30  1  0  0  0  0
  6 31  1  0  0  0  0
  7 32  1  0  0  0  0
  7 33  1  0  0  0  0
  8 34  1  0  0  0  0
  8 35  1  0  0  0  0
  9 36  1  0  0  0  0
  9 37  1  0  0  0  0
 10 38  1  0  0  0  0
 10 39  1  0  0  0  0
 11 40  1  0  0  0  0
 16 41  1  0  0  0  0
 17 42  1  0  0  0  0
 19 43  1  0  0  0  0
 20 44  1  0  0  0  0
M  END
> <FRED Chemgauss4 score>
-7.392995

$$$$
C83746311	P131018920
  -OEChem-05122015073D

 26 27  0     1  0  0  0  0  0999 V2000
   55.8299  156.9830   -6.2111 C   0  0  0  0  0  0  0  0  0  0  0  0
   56.7614  155.0397   -6.6481 C   0  0  0  0  0  0  0  0  0  0  0  0
   55.1082  155.8633   -2.1148 C   0  0  0  0  0  0  0  0  0  0  0  0
   55.5496  155.6097   -6.3429 C   0  0  0  0  0  0  0  0  0  0  0  0
   53.8593  155.7215   -3.7813 C   0  0  0  0  0  0  0  0  0  0  0  0
   59.0708  155.9608   -6.9593 C   0  0  0  0  0  0  0  0  0  0  0  0
   54.2163  154.9156   -6.1822 C   0  0  0  0  0  0  0  0  0  0  0  0
   53.2773  155.6254   -5.1814 C   0  0  2  0  0  0  0  0  0  0  0  0
   57.1186  157.2682   -6.4156 N   0  0  0  0  0  0  0  0  0  0  0  0
   55.1343  155.8004   -3.4786 N   0  0  0  0  0  0  0  0  0  0  0  0
   53.1166  155.7375   -2.6421 N   0  0  0  0  0  0  0  0  0  0  0  0
   53.8972  155.8283   -1.5546 N   0  0  0  0  0  0  0  0  0  0  0  0
   57.6589  156.0662   -6.6790 N   0  0  0  0  0  0  0  0  0  0  0  0
   52.9189  156.9563   -5.6901 N   0  0  0  0  0  0  0  0  0  0  0  0
   55.1507  157.7896   -5.9737 H   0  0  0  0  0  0  0  0  0  0  0  0
   57.0544  154.0164   -6.8398 H   0  0  0  0  0  0  0  0  0  0  0  0
   56.0117  155.9369   -1.5239 H   0  0  0  0  0  0  0  0  0  0  0  0
   59.2098  156.0726   -8.0378 H   0  0  0  0  0  0  0  0  0  0  0  0
   59.6085  156.7464   -6.4210 H   0  0  0  0  0  0  0  0  0  0  0  0
   59.4337  154.9849   -6.6250 H   0  0  0  0  0  0  0  0  0  0  0  0
   54.4152  153.8894   -5.8427 H   0  0  0  0  0  0  0  0  0  0  0  0
   53.7359  154.8084   -7.1638 H   0  0  0  0  0  0  0  0  0  0  0  0
   52.3392  155.0583   -5.1265 H   0  0  0  0  0  0  0  0  0  0  0  0
   53.5288  155.8542   -0.6079 H   0  0  0  0  0  0  0  0  0  0  0  0
   52.5865  157.6249   -5.0358 H   0  0  0  0  0  0  0  0  0  0  0  0
   52.8296  157.0644   -6.6730 H   0  0  0  0  0  0  0  0  0  0  0  0
  1  4  1  0  0  0  0
  1  9  2  0  0  0  0
  2  4  2  0  0  0  0
  2 13  1  0  0  0  0
  3 10  2  0  0  0  0
  3 12  1  0  0  0  0
  4  7  1  0  0  0  0
  5  8  1  0  0  0  0
  5 10  1  0  0  0  0
  5 11  2  0  0  0  0
  6 13  1  0  0  0  0
  7  8  1  0  0  0  0
  8 14  1  0  0  0  0
  9 13  1  0  0  0  0
 11 12  1  0  0  0  0
  1 15  1  0  0  0  0
  2 16  1  0  0  0  0
  3 17  1  0  0  0  0
  6 18  1  0  0  0  0
  6 19  1  0  0  0  0
  6 20  1  0  0  0  0
  7 21  1  0  0  0  0
  7 22  1  0  0  0  0
  8 23  1  0  0  0  0
 12 24  1  0  0  0  0
 14 25  1  0  0  0  0
 14 26  1  0  0  0  0
M  END
> <FRED Chemgauss4 score>
-7.385621

$$$$
C87969103	P137597619
  -OEChem-05122015073D

 41 42  0     1  0  0  0  0  0999 V2000
   55.5914  158.5924   -2.3034 C   0  0  0  0  0  0  0  0  0  0  0  0
   55.5299  157.1451   -3.7803 C   0  0  0  0  0  0  0  0  0  0  0  0
   58.6761  159.5665   -1.3742 C   0  0  0  0  0  0  0  0  0  0  0  0
   57.3667  159.4686   -0.5875 C   0  0  0  0  0  0  0  0  0  0  0  0
   58.7816  160.8672   -2.1616 C   0  0  0  0  0  0  0  0  0  0  0  0
   56.2731  161.0547   -2.2174 C   0  0  0  0  0  0  0  0  0  0  0  0
   56.0992  159.7366   -1.4281 C   0  0  1  0  0  0  0  0  0  0  0  0
   57.5580  161.0815   -3.0580 C   0  0  1  0  0  0  0  0  0  0  0  0
   58.9048  162.4415   -4.6623 C   0  0  0  0  0  0  0  0  0  0  0  0
   57.6763  162.4032   -3.8164 C   0  0  0  0  0  0  0  0  0  0  0  0
   55.2882  156.7163   -6.2899 C   0  0  0  0  0  0  0  0  0  0  0  0
   53.7959  157.0242   -6.3563 C   0  0  0  0  0  0  0  0  0  0  0  0
   55.7305  156.2029   -4.8895 C   0  0  1  0  0  0  0  0  0  0  0  0
   56.3340  158.0713   -3.3228 N   0  0  0  0  0  0  0  0  0  0  0  0
   54.3899  158.0378   -2.1174 N   0  0  0  0  0  0  0  0  0  0  0  0
   57.1245  155.7737   -5.0091 N   0  0  0  0  0  0  0  0  0  0  0  0
   54.3472  157.0577   -3.1170 O   0  0  0  0  0  0  0  0  0  0  0  0
   53.0715  155.8403   -6.0473 O   0  0  0  0  0  0  0  0  0  0  0  0
   59.5252  159.4738   -0.6830 H   0  0  0  0  0  0  0  0  0  0  0  0
   58.7471  158.7140   -2.0638 H   0  0  0  0  0  0  0  0  0  0  0  0
   57.2998  158.4631   -0.1243 H   0  0  0  0  0  0  0  0  0  0  0  0
   57.4048  160.1741    0.2661 H   0  0  0  0  0  0  0  0  0  0  0  0
   58.9035  161.7051   -1.4757 H   0  0  0  0  0  0  0  0  0  0  0  0
   59.6746  160.8269   -2.7879 H   0  0  0  0  0  0  0  0  0  0  0  0
   55.4138  161.1865   -2.8879 H   0  0  0  0  0  0  0  0  0  0  0  0
   56.2555  161.9077   -1.5286 H   0  0  0  0  0  0  0  0  0  0  0  0
   55.2541  159.9294   -0.6873 H   0  0  0  0  0  0  0  0  0  0  0  0
   57.5148  160.2879   -3.7864 H   0  0  0  0  0  0  0  0  0  0  0  0
   59.7894  162.3126   -4.0276 H   0  0  0  0  0  0  0  0  0  0  0  0
   58.9951  163.4027   -5.1792 H   0  0  0  0  0  0  0  0  0  0  0  0
   58.8967  161.6338   -5.4018 H   0  0  0  0  0  0  0  0  0  0  0  0
   56.7916  162.5312   -4.4434 H   0  0  0  0  0  0  0  0  0  0  0  0
   57.6980  163.2233   -3.0959 H   0  0  0  0  0  0  0  0  0  0  0  0
   55.8433  157.6228   -6.5684 H   0  0  0  0  0  0  0  0  0  0  0  0
   55.5442  155.9837   -7.0667 H   0  0  0  0  0  0  0  0  0  0  0  0
   53.5139  157.7950   -5.6331 H   0  0  0  0  0  0  0  0  0  0  0  0
   53.5101  157.3535   -7.3603 H   0  0  0  0  0  0  0  0  0  0  0  0
   55.1817  155.2492   -4.7209 H   0  0  0  0  0  0  0  0  0  0  0  0
   57.4367  155.4461   -5.8958 H   0  0  0  0  0  0  0  0  0  0  0  0
   57.6421  155.6329   -4.1705 H   0  0  0  0  0  0  0  0  0  0  0  0
   52.1292  156.0680   -6.0978 H   0  0  0  0  0  0  0  0  0  0  0  0
  1  7  1  0  0  0  0
  1 14  1  0  0  0  0
  1 15  2  0  0  0  0
  2 13  1  0  0  0  0
  2 14  2  0  0  0  0
  2 17  1  0  0  0  0
  3  4  1  0  0  0  0
  3  5  1  0  0  0  0
  4  7  1  0  0  0  0
  5  8  1  0  0  0  0
  6  7  1  0  0  0  0
  6  8  1  0  0  0  0
  8 10  1  0  0  0  0
  9 10  1  0  0  0  0
 11 12  1  0  0  0  0
 11 13  1  0  0  0  0
 12 18  1  0  0  0  0
 13 16  1  0  0  0  0
 15 17  1  0  0  0  0
  3 19  1  0  0  0  0
  3 20  1  0  0  0  0
  4 21  1  0  0  0  0
  4 22  1  0  0  0  0
  5 23  1  0  0  0  0
  5 24  1  0  0  0  0
  6 25  1  0  0  0  0
  6 26  1  0  0  0  0
  7 27  1  0  0  0  0
  8 28  1  0  0  0  0
  9 29  1  0  0  0  0
  9 30  1  0  0  0  0
  9 31  1  0  0  0  0
 10 32  1  0  0  0  0
 10 33  1  0  0  0  0
 11 34  1  0  0  0  0
 11 35  1  0  0  0  0
 12 36  1  0  0  0  0
 12 37  1  0  0  0  0
 13 38  1  0  0  0  0
 16 39  1  0  0  0  0
 16 40  1  0  0  0  0
 18 41  1  0  0  0  0
M  END
> <FRED Chemgauss4 score>
-7.385358

$$$$
C40306071	P61188732
  -OEChem-05122015073D

 34 34  0     0  0  0  0  0  0999 V2000
   53.9002  157.5646   -4.4161 C   0  0  0  0  0  0  0  0  0  0  0  0
   56.2563  157.0356   -4.3408 C   0  0  0  0  0  0  0  0  0  0  0  0
   55.1560  157.7245   -3.8305 C   0  0  0  0  0  0  0  0  0  0  0  0
   53.7445  156.7157   -5.5119 C   0  0  0  0  0  0  0  0  0  0  0  0
   56.1007  156.1866   -5.4367 C   0  0  0  0  0  0  0  0  0  0  0  0
   54.8448  156.0267   -6.0222 C   0  0  0  0  0  0  0  0  0  0  0  0
   55.3214  158.6282   -2.6630 C   0  0  0  0  0  0  0  0  0  0  0  0
   56.2891  162.1830   -2.6854 C   0  0  0  0  0  0  0  0  0  0  0  0
   55.8729  164.4363   -3.6954 C   0  0  0  0  0  0  0  0  0  0  0  0
   56.7990  164.2847   -1.4172 C   0  0  0  0  0  0  0  0  0  0  0  0
   57.3522  161.4401   -1.8823 C   0  0  0  0  0  0  0  0  0  0  0  0
   56.9050  160.0635   -1.4028 C   0  0  0  0  0  0  0  0  0  0  0  0
   52.4567  156.5785   -6.0791 N   0  0  0  0  0  0  0  0  0  0  0  0
   56.5822  159.1887   -2.4977 N   0  0  0  0  0  0  0  0  0  0  0  0
   56.3188  163.5796   -2.6034 N   0  0  0  0  0  0  0  0  0  0  0  0
   54.3696  158.8154   -1.9096 O   0  0  0  0  0  0  0  0  0  0  0  0
   55.4616  161.5611   -3.3566 O   0  0  0  0  0  0  0  0  0  0  0  0
   57.5072  155.3641   -6.0170 Cl  0  0  0  0  0  0  0  0  0  0  0  0
   54.6312  154.9752   -7.3882 Cl  0  0  0  0  0  0  0  0  0  0  0  0
   53.0431  158.1033   -4.0170 H   0  0  0  0  0  0  0  0  0  0  0  0
   57.2325  157.1650   -3.8783 H   0  0  0  0  0  0  0  0  0  0  0  0
   54.8070  164.6547   -3.5904 H   0  0  0  0  0  0  0  0  0  0  0  0
   56.0377  163.9409   -4.6560 H   0  0  0  0  0  0  0  0  0  0  0  0
   56.4276  165.3785   -3.6873 H   0  0  0  0  0  0  0  0  0  0  0  0
   57.8735  164.4684   -1.4986 H   0  0  0  0  0  0  0  0  0  0  0  0
   56.6110  163.6876   -0.5207 H   0  0  0  0  0  0  0  0  0  0  0  0
   56.2848  165.2439   -1.3136 H   0  0  0  0  0  0  0  0  0  0  0  0
   58.2530  161.3367   -2.4983 H   0  0  0  0  0  0  0  0  0  0  0  0
   57.5885  162.0490   -1.0020 H   0  0  0  0  0  0  0  0  0  0  0  0
   56.0246  160.1256   -0.7555 H   0  0  0  0  0  0  0  0  0  0  0  0
   57.7108  159.5829   -0.8390 H   0  0  0  0  0  0  0  0  0  0  0  0
   51.6875  157.0525   -5.6547 H   0  0  0  0  0  0  0  0  0  0  0  0
   52.3256  155.9377   -6.8333 H   0  0  0  0  0  0  0  0  0  0  0  0
   57.3366  158.9334   -3.1317 H   0  0  0  0  0  0  0  0  0  0  0  0
  1  3  1  0  0  0  0
  1  4  2  0  0  0  0
  2  3  2  0  0  0  0
  2  5  1  0  0  0  0
  3  7  1  0  0  0  0
  4  6  1  0  0  0  0
  4 13  1  0  0  0  0
  5  6  2  0  0  0  0
  5 18  1  0  0  0  0
  6 19  1  0  0  0  0
  7 14  1  0  0  0  0
  7 16  2  0  0  0  0
  8 11  1  0  0  0  0
  8 15  1  0  0  0  0
  8 17  2  0  0  0  0
  9 15  1  0  0  0  0
 10 15  1  0  0  0  0
 11 12  1  0  0  0  0
 12 14  1  0  0  0  0
  1 20  1  0  0  0  0
  2 21  1  0  0  0  0
  9 22  1  0  0  0  0
  9 23  1  0  0  0  0
  9 24  1  0  0  0  0
 10 25  1  0  0  0  0
 10 26  1  0  0  0  0
 10 27  1  0  0  0  0
 11 28  1  0  0  0  0
 11 29  1  0  0  0  0
 12 30  1  0  0  0  0
 12 31  1  0  0  0  0
 13 32  1  0  0  0  0
 13 33  1  0  0  0  0
 14 34  1  0  0  0  0
M  END
> <FRED Chemgauss4 score>
-7.384855

$$$$
C40729842	P61849313
  -OEChem-05122015073D

 30 30  0     1  0  0  0  0  0999 V2000
   57.0223  155.2637   -6.3628 C   0  0  0  0  0  0  0  0  0  0  0  0
   56.9547  156.6678   -6.2864 C   0  0  0  0  0  0  0  0  0  0  0  0
   55.7278  154.8467   -6.1710 C   0  0  0  0  0  0  0  0  0  0  0  0
   58.2120  154.4266   -6.5953 C   0  0  0  0  0  0  0  0  0  0  0  0
   58.0587  157.6343   -6.4216 C   0  0  0  0  0  0  0  0  0  0  0  0
   55.1345  153.4965   -6.1358 C   0  0  0  0  0  0  0  0  0  0  0  0
   53.5508  156.0686   -5.7580 C   0  0  0  0  0  0  0  0  0  0  0  0
   53.8016  155.8107   -3.2336 C   0  0  0  0  0  0  0  0  0  0  0  0
   53.1217  155.2933   -4.5060 C   0  0  1  0  0  0  0  0  0  0  0  0
   55.7153  157.1129   -6.0636 N   0  0  0  0  0  0  0  0  0  0  0  0
   54.9921  155.9821   -5.9984 N   0  0  0  0  0  0  0  0  0  0  0  0
   53.3607  155.0927   -2.0453 N   0  0  0  0  0  0  0  0  0  0  0  0
   51.7100  155.4505   -4.3452 O   0  0  0  0  0  0  0  0  0  0  0  0
   58.7001  154.1520   -5.6447 H   0  0  0  0  0  0  0  0  0  0  0  0
   57.9651  153.4896   -7.1254 H   0  0  0  0  0  0  0  0  0  0  0  0
   58.9654  154.9379   -7.2207 H   0  0  0  0  0  0  0  0  0  0  0  0
   58.1928  157.9438   -7.4720 H   0  0  0  0  0  0  0  0  0  0  0  0
   57.8878  158.5476   -5.8246 H   0  0  0  0  0  0  0  0  0  0  0  0
   59.0204  157.2195   -6.0711 H   0  0  0  0  0  0  0  0  0  0  0  0
   55.1395  153.0859   -5.1125 H   0  0  0  0  0  0  0  0  0  0  0  0
   54.0900  153.4931   -6.4924 H   0  0  0  0  0  0  0  0  0  0  0  0
   55.6789  152.7874   -6.7834 H   0  0  0  0  0  0  0  0  0  0  0  0
   53.2990  157.1323   -5.6681 H   0  0  0  0  0  0  0  0  0  0  0  0
   53.0626  155.6874   -6.6622 H   0  0  0  0  0  0  0  0  0  0  0  0
   54.8895  155.7144   -3.3318 H   0  0  0  0  0  0  0  0  0  0  0  0
   53.6014  156.8816   -3.1115 H   0  0  0  0  0  0  0  0  0  0  0  0
   53.3194  154.2215   -4.6299 H   0  0  0  0  0  0  0  0  0  0  0  0
   53.4219  155.5564   -1.1630 H   0  0  0  0  0  0  0  0  0  0  0  0
   53.2076  154.1084   -2.1175 H   0  0  0  0  0  0  0  0  0  0  0  0
   51.3031  155.0880   -5.1459 H   0  0  0  0  0  0  0  0  0  0  0  0
  1  2  1  0  0  0  0
  1  3  2  0  0  0  0
  1  4  1  0  0  0  0
  2  5  1  0  0  0  0
  2 10  2  0  0  0  0
  3  6  1  0  0  0  0
  3 11  1  0  0  0  0
  7  9  1  0  0  0  0
  7 11  1  0  0  0  0
  8  9  1  0  0  0  0
  8 12  1  0  0  0  0
  9 13  1  0  0  0  0
 10 11  1  0  0  0  0
  4 14  1  0  0  0  0
  4 15  1  0  0  0  0
  4 16  1  0  0  0  0
  5 17  1  0  0  0  0
  5 18  1  0  0  0  0
  5 19  1  0  0  0  0
  6 20  1  0  0  0  0
  6 21  1  0  0  0  0
  6 22  1  0  0  0  0
  7 23  1  0  0  0  0
  7 24  1  0  0  0  0
  8 25  1  0  0  0  0
  8 26  1  0  0  0  0
  9 27  1  0  0  0  0
 12 28  1  0  0  0  0
 12 29  1  0  0  0  0
 13 30  1  0  0  0  0
M  END
> <FRED Chemgauss4 score>
-7.384439

$$$$
C49587665	P74065899
  -OEChem-05122015073D

 41 41  0     1  0  0  0  0  0999 V2000
   55.7482  156.2543   -5.0766 C   0  0  0  0  0  0  0  0  0  0  0  0
   54.6724  156.0019   -4.6055 C   0  0  0  0  0  0  0  0  0  0  0  0
   58.5856  156.3439   -7.4746 C   0  0  0  0  0  0  0  0  0  0  0  0
   59.5129  157.1188   -6.7780 C   0  0  0  0  0  0  0  0  0  0  0  0
   57.3436  156.0629   -6.9052 C   0  0  0  0  0  0  0  0  0  0  0  0
   59.1983  157.6126   -5.5120 C   0  0  0  0  0  0  0  0  0  0  0  0
   57.0290  156.5567   -5.6392 C   0  0  0  0  0  0  0  0  0  0  0  0
   57.9563  157.3316   -4.9425 C   0  0  0  0  0  0  0  0  0  0  0  0
   58.5714  161.7936   -0.7925 C   0  0  0  0  0  0  0  0  0  0  0  0
   56.7848  162.2247   -2.5153 C   0  0  0  0  0  0  0  0  0  0  0  0
   57.5765  159.2996   -0.2703 C   0  0  0  0  0  0  0  0  0  0  0  0
   53.3641  155.6945   -4.0294 C   0  0  0  0  0  0  0  0  0  0  0  0
   57.6529  157.8800   -3.5783 C   0  0  0  0  0  0  0  0  0  0  0  0
   57.6665  161.1781   -1.8500 C   0  0  0  0  0  0  0  0  0  0  0  0
   52.3177  155.8799   -4.9953 N   0  0  0  0  0  0  0  0  0  0  0  0
   56.7298  159.0299   -3.6381 N   0  0  0  0  0  0  0  0  0  0  0  0
   56.7981  160.1519   -1.2111 N   0  0  1  0  0  0  0  0  0  0  0  0
   54.6754  160.2549   -2.6937 O   0  0  0  0  0  0  0  0  0  0  0  0
   55.3529  158.0511   -1.6946 O   0  0  0  0  0  0  0  0  0  0  0  0
   55.7146  159.3271   -2.2855 S   0  0  0  0  0  0  0  0  0  0  0  0
   58.8309  155.9594   -8.4603 H   0  0  0  0  0  0  0  0  0  0  0  0
   60.4799  157.3375   -7.2214 H   0  0  0  0  0  0  0  0  0  0  0  0
   56.6322  155.4572   -7.4618 H   0  0  0  0  0  0  0  0  0  0  0  0
   59.9281  158.2154   -4.9778 H   0  0  0  0  0  0  0  0  0  0  0  0
   57.9817  162.2991   -0.0209 H   0  0  0  0  0  0  0  0  0  0  0  0
   59.1914  161.0330   -0.3048 H   0  0  0  0  0  0  0  0  0  0  0  0
   59.2468  162.5308   -1.2404 H   0  0  0  0  0  0  0  0  0  0  0  0
   56.1640  162.7381   -1.7729 H   0  0  0  0  0  0  0  0  0  0  0  0
   56.1196  161.7628   -3.2523 H   0  0  0  0  0  0  0  0  0  0  0  0
   57.3838  162.9866   -3.0266 H   0  0  0  0  0  0  0  0  0  0  0  0
   56.9231  158.5530    0.1886 H   0  0  0  0  0  0  0  0  0  0  0  0
   58.0180  159.9138    0.5192 H   0  0  0  0  0  0  0  0  0  0  0  0
   58.3797  158.7840   -0.8036 H   0  0  0  0  0  0  0  0  0  0  0  0
   53.1483  156.3486   -3.1795 H   0  0  0  0  0  0  0  0  0  0  0  0
   53.3161  154.6566   -3.6879 H   0  0  0  0  0  0  0  0  0  0  0  0
   57.1940  157.1117   -2.9465 H   0  0  0  0  0  0  0  0  0  0  0  0
   58.5677  158.2108   -3.0753 H   0  0  0  0  0  0  0  0  0  0  0  0
   58.2771  160.6788   -2.6102 H   0  0  0  0  0  0  0  0  0  0  0  0
   52.3737  156.6526   -5.6411 H   0  0  0  0  0  0  0  0  0  0  0  0
   51.4529  155.3717   -4.8892 H   0  0  0  0  0  0  0  0  0  0  0  0
   57.1318  159.8571   -4.0982 H   0  0  0  0  0  0  0  0  0  0  0  0
  1  2  3  0  0  0  0
  1  7  1  0  0  0  0
  2 12  1  0  0  0  0
  3  4  1  0  0  0  0
  3  5  2  0  0  0  0
  4  6  2  0  0  0  0
  5  7  1  0  0  0  0
  6  8  1  0  0  0  0
  7  8  2  0  0  0  0
  8 13  1  0  0  0  0
  9 14  1  0  0  0  0
 10 14  1  0  0  0  0
 11 17  1  0  0  0  0
 12 15  1  0  0  0  0
 13 16  1  0  0  0  0
 14 17  1  0  0  0  0
 16 20  1  0  0  0  0
 17 20  1  0  0  0  0
 18 20  2  0  0  0  0
 19 20  2  0  0  0  0
  3 21  1  0  0  0  0
  4 22  1  0  0  0  0
  5 23  1  0  0  0  0
  6 24  1  0  0  0  0
  9 25  1  0  0  0  0
  9 26  1  0  0  0  0
  9 27  1  0  0  0  0
 10 28  1  0  0  0  0
 10 29  1  0  0  0  0
 10 30  1  0  0  0  0
 11 31  1  0  0  0  0
 11 32  1  0  0  0  0
 11 33  1  0  0  0  0
 12 34  1  0  0  0  0
 12 35  1  0  0  0  0
 13 36  1  0  0  0  0
 13 37  1  0  0  0  0
 14 38  1  0  0  0  0
 15 39  1  0  0  0  0
 15 40  1  0  0  0  0
 16 41  1  0  0  0  0
M  END
> <FRED Chemgauss4 score>
-7.378899

$$$$
cis-3-hydroxyproline	P10000031
  -OEChem-05122015073D

 18 18  0     1  0  0  0  0  0999 V2000
   53.6114  156.1016   -3.0686 C   0  0  0  0  0  0  0  0  0  0  0  0
   55.2655  155.9852   -6.4301 C   0  0  0  0  0  0  0  0  0  0  0  0
   53.9228  156.6223   -6.7475 C   0  0  0  0  0  0  0  0  0  0  0  0
   53.9360  155.6917   -4.4855 C   0  0  2  0  0  0  0  0  0  0  0  0
   55.3488  156.0597   -4.9132 C   0  0  2  0  0  0  0  0  0  0  0  0
   53.0729  156.3356   -5.5417 N   0  3  0  0  0  0  0  0  0  0  0  0
   53.7516  157.3306   -2.8174 O   0  5  0  0  0  0  0  0  0  0  0  0
   53.2405  155.1576   -2.3159 O   0  0  0  0  0  0  0  0  0  0  0  0
   55.6718  157.3867   -4.5128 O   0  0  0  0  0  0  0  0  0  0  0  0
   55.2693  154.9401   -6.7616 H   0  0  0  0  0  0  0  0  0  0  0  0
   56.0813  156.5144   -6.9317 H   0  0  0  0  0  0  0  0  0  0  0  0
   53.9907  157.7107   -6.8370 H   0  0  0  0  0  0  0  0  0  0  0  0
   53.4350  156.1947   -7.6271 H   0  0  0  0  0  0  0  0  0  0  0  0
   53.7807  154.6156   -4.5883 H   0  0  0  0  0  0  0  0  0  0  0  0
   56.1027  155.3787   -4.5066 H   0  0  0  0  0  0  0  0  0  0  0  0
   52.6628  157.2125   -5.1918 H   0  0  0  0  0  0  0  0  0  0  0  0
   52.2832  155.7214   -5.7840 H   0  0  0  0  0  0  0  0  0  0  0  0
   56.5297  157.5975   -4.9142 H   0  0  0  0  0  0  0  0  0  0  0  0
  1  4  1  0  0  0  0
  1  7  1  0  0  0  0
  1  8  2  0  0  0  0
  2  3  1  0  0  0  0
  2  5  1  0  0  0  0
  3  6  1  0  0  0  0
  4  5  1  0  0  0  0
  4  6  1  0  0  0  0
  5  9  1  0  0  0  0
  2 10  1  0  0  0  0
  2 11  1  0  0  0  0
  3 12  1  0  0  0  0
  3 13  1  0  0  0  0
  4 14  1  0  0  0  0
  5 15  1  0  0  0  0
  6 16  1  0  0  0  0
  6 17  1  0  0  0  0
  9 18  1  0  0  0  0
M  CHG  2   6   1   7  -1
M  END
> <FRED Chemgauss4 score>
-7.378134

$$$$
C67786338	P104082259
  -OEChem-05122015073D

 43 44  0     1  0  0  0  0  0999 V2000
   55.8862  156.5784   -3.5839 C   0  0  0  0  0  0  0  0  0  0  0  0
   55.1126  157.2247   -2.6427 C   0  0  0  0  0  0  0  0  0  0  0  0
   53.5058  156.2745   -3.7938 C   0  0  0  0  0  0  0  0  0  0  0  0
   57.1117  161.8958   -4.1287 C   0  0  0  0  0  0  0  0  0  0  0  0
   58.4377  161.5318   -1.5265 C   0  0  0  0  0  0  0  0  0  0  0  0
   56.9729  161.9208   -1.5735 C   0  0  0  0  0  0  0  0  0  0  0  0
   59.1623  162.1695   -2.6966 C   0  0  0  0  0  0  0  0  0  0  0  0
   56.3313  161.4670   -2.8826 C   0  0  2  0  0  0  0  0  0  0  0  0
   58.8176  159.0241   -6.8313 C   0  0  0  0  0  0  0  0  0  0  0  0
   55.6281  158.0804   -1.5218 C   0  0  0  0  0  0  0  0  0  0  0  0
   56.1472  159.9474   -2.9379 C   0  0  0  0  0  0  0  0  0  0  0  0
   59.3155  162.2702   -5.1624 C   0  0  0  0  0  0  0  0  0  0  0  0
   59.6945  160.9643   -5.8367 C   0  0  0  0  0  0  0  0  0  0  0  0
   53.7474  157.0520   -2.7617 N   0  0  0  0  0  0  0  0  0  0  0  0
   58.4985  161.9947   -3.9882 N   0  0  0  0  0  0  0  0  0  0  0  0
   52.2621  155.9006   -4.1964 N   0  0  0  0  0  0  0  0  0  0  0  0
   55.4322  159.5120   -1.7881 N   0  0  0  0  0  0  0  0  0  0  0  0
   56.5190  162.0634   -5.1986 O   0  0  0  0  0  0  0  0  0  0  0  0
   55.0289  162.0403   -2.9698 O   0  0  0  0  0  0  0  0  0  0  0  0
   58.5138  160.2603   -6.2001 O   0  0  0  0  0  0  0  0  0  0  0  0
   54.8738  155.7146   -4.6657 S   0  0  0  0  0  0  0  0  0  0  0  0
   56.9623  156.5673   -3.6849 H   0  0  0  0  0  0  0  0  0  0  0  0
   58.8884  161.8650   -0.5849 H   0  0  0  0  0  0  0  0  0  0  0  0
   58.5497  160.4427   -1.5610 H   0  0  0  0  0  0  0  0  0  0  0  0
   56.4381  161.4950   -0.7156 H   0  0  0  0  0  0  0  0  0  0  0  0
   56.8768  163.0101   -1.4693 H   0  0  0  0  0  0  0  0  0  0  0  0
   59.2545  163.2500   -2.5334 H   0  0  0  0  0  0  0  0  0  0  0  0
   60.1740  161.7536   -2.7643 H   0  0  0  0  0  0  0  0  0  0  0  0
   57.8895  158.5115   -7.0961 H   0  0  0  0  0  0  0  0  0  0  0  0
   59.4086  158.4033   -6.1532 H   0  0  0  0  0  0  0  0  0  0  0  0
   59.3943  159.2204   -7.7383 H   0  0  0  0  0  0  0  0  0  0  0  0
   55.1155  157.8386   -0.5843 H   0  0  0  0  0  0  0  0  0  0  0  0
   56.6981  157.9133   -1.3599 H   0  0  0  0  0  0  0  0  0  0  0  0
   57.1235  159.4855   -2.9543 H   0  0  0  0  0  0  0  0  0  0  0  0
   55.5882  159.6988   -3.8277 H   0  0  0  0  0  0  0  0  0  0  0  0
   60.2037  162.8229   -4.8403 H   0  0  0  0  0  0  0  0  0  0  0  0
   58.7321  162.8958   -5.8448 H   0  0  0  0  0  0  0  0  0  0  0  0
   60.2628  160.3360   -5.1438 H   0  0  0  0  0  0  0  0  0  0  0  0
   60.2937  161.1352   -6.7370 H   0  0  0  0  0  0  0  0  0  0  0  0
   51.4222  156.1747   -3.6754 H   0  0  0  0  0  0  0  0  0  0  0  0
   52.1217  155.2537   -4.9799 H   0  0  0  0  0  0  0  0  0  0  0  0
   54.4194  159.6727   -1.8995 H   0  0  0  0  0  0  0  0  0  0  0  0
   54.6293  161.6926   -3.7816 H   0  0  0  0  0  0  0  0  0  0  0  0
  1  2  2  0  0  0  0
  1 21  1  0  0  0  0
  2 10  1  0  0  0  0
  2 14  1  0  0  0  0
  3 14  2  0  0  0  0
  3 16  1  0  0  0  0
  3 21  1  0  0  0  0
  4  8  1  0  0  0  0
  4 15  1  0  0  0  0
  4 18  2  0  0  0  0
  5  6  1  0  0  0  0
  5  7  1  0  0  0  0
  6  8  1  0  0  0  0
  7 15  1  0  0  0  0
  8 11  1  0  0  0  0
  8 19  1  0  0  0  0
  9 20  1  0  0  0  0
 10 17  1  0  0  0  0
 11 17  1  0  0  0  0
 12 13  1  0  0  0  0
 12 15  1  0  0  0  0
 13 20  1  0  0  0  0
  1 22  1  0  0  0  0
  5 23  1  0  0  0  0
  5 24  1  0  0  0  0
  6 25  1  0  0  0  0
  6 26  1  0  0  0  0
  7 27  1  0  0  0  0
  7 28  1  0  0  0  0
  9 29  1  0  0  0  0
  9 30  1  0  0  0  0
  9 31  1  0  0  0  0
 10 32  1  0  0  0  0
 10 33  1  0  0  0  0
 11 34  1  0  0  0  0
 11 35  1  0  0  0  0
 12 36  1  0  0  0  0
 12 37  1  0  0  0  0
 13 38  1  0  0  0  0
 13 39  1  0  0  0  0
 16 40  1  0  0  0  0
 16 41  1  0  0  0  0
 17 42  1  0  0  0  0
 19 43  1  0  0  0  0
M  END
> <FRED Chemgauss4 score>
-7.371579

$$$$
C04403143	P05907347
  -OEChem-05122015073D

 30 30  0     1  0  0  0  0  0999 V2000
   58.0975  154.6348   -6.2219 C   0  0  0  0  0  0  0  0  0  0  0  0
   58.3843  155.9570   -5.5578 C   0  0  2  0  0  0  0  0  0  0  0  0
   57.0670  156.6832   -5.7375 C   0  0  2  0  0  0  0  0  0  0  0  0
   56.0816  155.5356   -5.5838 C   0  0  1  0  0  0  0  0  0  0  0  0
   54.0029  156.1248   -3.2175 C   0  0  0  0  0  0  0  0  0  0  0  0
   54.7247  155.7378   -6.2442 C   0  0  2  0  0  0  0  0  0  0  0  0
   53.1009  156.5174   -4.3869 C   0  0  1  0  0  0  0  0  0  0  0  0
   53.8998  156.8901   -5.6452 C   0  0  2  0  0  0  0  0  0  0  0  0
   58.9219  153.8723   -6.6995 O   0  0  0  0  0  0  0  0  0  0  0  0
   56.7442  154.4122   -6.1977 O   0  0  0  0  0  0  0  0  0  0  0  0
   59.4684  156.6467   -6.1187 O   0  0  0  0  0  0  0  0  0  0  0  0
   57.0101  157.2493   -7.0433 O   0  0  0  0  0  0  0  0  0  0  0  0
   53.2552  156.2220   -2.0093 O   0  0  0  0  0  0  0  0  0  0  0  0
   53.9775  154.5258   -6.0967 O   0  0  0  0  0  0  0  0  0  0  0  0
   52.2437  155.4148   -4.6888 O   0  0  0  0  0  0  0  0  0  0  0  0
   52.9829  157.3404   -6.6497 O   0  0  0  0  0  0  0  0  0  0  0  0
   58.5805  155.7649   -4.4964 H   0  0  0  0  0  0  0  0  0  0  0  0
   56.9215  157.4871   -5.0098 H   0  0  0  0  0  0  0  0  0  0  0  0
   55.9406  155.2869   -4.5245 H   0  0  0  0  0  0  0  0  0  0  0  0
   54.3510  155.0924   -3.3190 H   0  0  0  0  0  0  0  0  0  0  0  0
   54.8623  156.7973   -3.1300 H   0  0  0  0  0  0  0  0  0  0  0  0
   54.8560  155.8839   -7.3220 H   0  0  0  0  0  0  0  0  0  0  0  0
   52.4572  157.3519   -4.0870 H   0  0  0  0  0  0  0  0  0  0  0  0
   54.5540  157.7412   -5.4193 H   0  0  0  0  0  0  0  0  0  0  0  0
   60.2606  156.0825   -6.0297 H   0  0  0  0  0  0  0  0  0  0  0  0
   56.1546  157.7013   -7.1123 H   0  0  0  0  0  0  0  0  0  0  0  0
   53.8550  155.9672   -1.2908 H   0  0  0  0  0  0  0  0  0  0  0  0
   53.1229  154.6819   -6.5237 H   0  0  0  0  0  0  0  0  0  0  0  0
   51.7287  155.2423   -3.8867 H   0  0  0  0  0  0  0  0  0  0  0  0
   53.5246  157.6347   -7.3955 H   0  0  0  0  0  0  0  0  0  0  0  0
  1  2  1  0  0  0  0
  1  9  2  0  0  0  0
  1 10  1  0  0  0  0
  2  3  1  0  0  0  0
  2 11  1  0  0  0  0
  3  4  1  0  0  0  0
  3 12  1  0  0  0  0
  4  6  1  0  0  0  0
  4 10  1  0  0  0  0
  5  7  1  0  0  0  0
  5 13  1  0  0  0  0
  6  8  1  0  0  0  0
  6 14  1  0  0  0  0
  7  8  1  0  0  0  0
  7 15  1  0  0  0  0
  8 16  1  0  0  0  0
  2 17  1  0  0  0  0
  3 18  1  0  0  0  0
  4 19  1  0  0  0  0
  5 20  1  0  0  0  0
  5 21  1  0  0  0  0
  6 22  1  0  0  0  0
  7 23  1  0  0  0  0
  8 24  1  0  0  0  0
 11 25  1  0  0  0  0
 12 26  1  0  0  0  0
 13 27  1  0  0  0  0
 14 28  1  0  0  0  0
 15 29  1  0  0  0  0
 16 30  1  0  0  0  0
M  END
> <FRED Chemgauss4 score>
-7.365582

$$$$
C87826162	P137377939
  -OEChem-05122015073D

 43 44  0     1  0  0  0  0  0999 V2000
   58.2521  157.0920   -5.5830 C   0  0  0  0  0  0  0  0  0  0  0  0
   59.2300  156.9812   -6.5714 C   0  0  0  0  0  0  0  0  0  0  0  0
   57.4509  154.8787   -6.1275 C   0  0  0  0  0  0  0  0  0  0  0  0
   57.3626  156.0407   -5.3610 C   0  0  0  0  0  0  0  0  0  0  0  0
   58.4288  154.7679   -7.1160 C   0  0  0  0  0  0  0  0  0  0  0  0
   59.3184  155.8191   -7.3379 C   0  0  0  0  0  0  0  0  0  0  0  0
   53.3625  156.5000   -3.3742 C   0  0  0  0  0  0  0  0  0  0  0  0
   53.6985  156.0546   -5.8132 C   0  0  0  0  0  0  0  0  0  0  0  0
   54.7077  157.1900   -5.8111 C   0  0  0  0  0  0  0  0  0  0  0  0
   54.4606  157.5607   -3.4474 C   0  0  1  0  0  0  0  0  0  0  0  0
   56.1009  158.9000   -2.1264 C   0  0  0  0  0  0  0  0  0  0  0  0
   61.1450  156.8503   -8.4587 C   0  0  0  0  0  0  0  0  0  0  0  0
   56.3111  156.1600   -4.2959 C   0  0  0  0  0  0  0  0  0  0  0  0
   58.5100  153.5163   -7.9263 C   0  0  0  0  0  0  0  0  0  0  0  0
   55.1328  157.7670   -2.0885 C   0  0  0  0  0  0  0  0  0  0  0  0
   52.9547  155.9559   -4.5743 N   0  0  0  0  0  0  0  0  0  0  0  0
   55.4182  157.2922   -4.5334 N   0  0  1  0  0  0  0  0  0  0  0  0
   59.0955  152.4259   -7.1897 N   0  0  0  0  0  0  0  0  0  0  0  0
   52.8030  156.2182   -2.3128 O   0  0  0  0  0  0  0  0  0  0  0  0
   60.2787  155.7285   -8.3003 O   0  0  0  0  0  0  0  0  0  0  0  0
   58.1907  158.0006   -4.9899 H   0  0  0  0  0  0  0  0  0  0  0  0
   59.9208  157.8035   -6.7375 H   0  0  0  0  0  0  0  0  0  0  0  0
   56.7572  154.0594   -5.9534 H   0  0  0  0  0  0  0  0  0  0  0  0
   52.9748  156.1773   -6.6276 H   0  0  0  0  0  0  0  0  0  0  0  0
   54.2011  155.0891   -5.9567 H   0  0  0  0  0  0  0  0  0  0  0  0
   55.4185  157.0088   -6.6464 H   0  0  0  0  0  0  0  0  0  0  0  0
   54.2024  158.1511   -6.0587 H   0  0  0  0  0  0  0  0  0  0  0  0
   53.9186  158.5225   -3.6915 H   0  0  0  0  0  0  0  0  0  0  0  0
   56.8713  158.6941   -2.8787 H   0  0  0  0  0  0  0  0  0  0  0  0
   56.5969  159.0259   -1.1581 H   0  0  0  0  0  0  0  0  0  0  0  0
   55.6007  159.8352   -2.3995 H   0  0  0  0  0  0  0  0  0  0  0  0
   61.8626  156.6475   -9.2575 H   0  0  0  0  0  0  0  0  0  0  0  0
   61.6721  157.0400   -7.5203 H   0  0  0  0  0  0  0  0  0  0  0  0
   60.5476  157.7263   -8.7224 H   0  0  0  0  0  0  0  0  0  0  0  0
   55.7001  155.2518   -4.2531 H   0  0  0  0  0  0  0  0  0  0  0  0
   56.7654  156.2932   -3.3085 H   0  0  0  0  0  0  0  0  0  0  0  0
   57.5129  153.1952   -8.2568 H   0  0  0  0  0  0  0  0  0  0  0  0
   59.1137  153.6630   -8.8317 H   0  0  0  0  0  0  0  0  0  0  0  0
   54.3612  157.9616   -1.3425 H   0  0  0  0  0  0  0  0  0  0  0  0
   55.6478  156.8468   -1.8098 H   0  0  0  0  0  0  0  0  0  0  0  0
   52.0717  155.4509   -4.5914 H   0  0  0  0  0  0  0  0  0  0  0  0
   59.5554  151.6861   -7.6939 H   0  0  0  0  0  0  0  0  0  0  0  0
   58.8639  152.3130   -6.2166 H   0  0  0  0  0  0  0  0  0  0  0  0
  1  2  2  0  0  0  0
  1  4  1  0  0  0  0
  2  6  1  0  0  0  0
  3  4  2  0  0  0  0
  3  5  1  0  0  0  0
  4 13  1  0  0  0  0
  5  6  2  0  0  0  0
  5 14  1  0  0  0  0
  6 20  1  0  0  0  0
  7 10  1  0  0  0  0
  7 16  1  0  0  0  0
  7 19  2  0  0  0  0
  8  9  1  0  0  0  0
  8 16  1  0  0  0  0
  9 17  1  0  0  0  0
 10 15  1  0  0  0  0
 10 17  1  0  0  0  0
 11 15  1  0  0  0  0
 12 20  1  0  0  0  0
 13 17  1  0  0  0  0
 14 18  1  0  0  0  0
  1 21  1  0  0  0  0
  2 22  1  0  0  0  0
  3 23  1  0  0  0  0
  8 24  1  0  0  0  0
  8 25  1  0  0  0  0
  9 26  1  0  0  0  0
  9 27  1  0  0  0  0
 10 28  1  0  0  0  0
 11 29  1  0  0  0  0
 11 30  1  0  0  0  0
 11 31  1  0  0  0  0
 12 32  1  0  0  0  0
 12 33  1  0  0  0  0
 12 34  1  0  0  0  0
 13 35  1  0  0  0  0
 13 36  1  0  0  0  0
 14 37  1  0  0  0  0
 14 38  1  0  0  0  0
 15 39  1  0  0  0  0
 15 40  1  0  0  0  0
 16 41  1  0  0  0  0
 18 42  1  0  0  0  0
 18 43  1  0  0  0  0
M  END
> <FRED Chemgauss4 score>
-7.363829

$$$$
C70438307	P108611322
  -OEChem-05122015073D

 36 37  0     1  0  0  0  0  0999 V2000
   57.3544  154.8250   -6.8062 C   0  0  0  0  0  0  0  0  0  0  0  0
   53.7873  155.8978   -4.0026 C   0  0  0  0  0  0  0  0  0  0  0  0
   58.1118  158.5022   -7.1692 C   0  0  0  0  0  0  0  0  0  0  0  0
   57.3856  157.2284   -7.5777 C   0  0  0  0  0  0  0  0  0  0  0  0
   55.9510  152.3752   -8.3163 C   0  0  0  0  0  0  0  0  0  0  0  0
   54.5447  152.6230   -7.8531 C   0  0  0  0  0  0  0  0  0  0  0  0
   59.5058  158.0813   -6.7362 C   0  0  0  0  0  0  0  0  0  0  0  0
   57.5638  156.2469   -6.4223 C   0  0  2  0  0  0  0  0  0  0  0  0
   55.7008  152.9354   -6.9428 C   0  0  0  0  0  0  0  0  0  0  0  0
   54.9289  155.0511   -4.5519 C   0  0  0  0  0  0  0  0  0  0  0  0
   54.9966  155.1315   -6.0709 C   0  0  0  0  0  0  0  0  0  0  0  0
   53.9331  156.3501   -2.7921 N   0  0  0  0  0  0  0  0  0  0  0  0
   52.7124  156.0837   -4.8402 N   0  0  0  0  0  0  0  0  0  0  0  0
   56.0541  154.3200   -6.6096 N   0  0  0  0  0  0  0  0  0  0  0  0
   58.3012  154.1794   -7.2635 O   0  0  0  0  0  0  0  0  0  0  0  0
   55.1583  155.9297   -2.2663 O   0  0  0  0  0  0  0  0  0  0  0  0
   59.2722  156.5105   -5.8578 S   0  0  0  0  0  0  0  0  0  0  0  0
   58.1561  159.2195   -7.9949 H   0  0  0  0  0  0  0  0  0  0  0  0
   57.5839  158.9902   -6.3400 H   0  0  0  0  0  0  0  0  0  0  0  0
   56.3207  157.4212   -7.7590 H   0  0  0  0  0  0  0  0  0  0  0  0
   57.7959  156.8369   -8.5196 H   0  0  0  0  0  0  0  0  0  0  0  0
   56.2788  151.3464   -8.4027 H   0  0  0  0  0  0  0  0  0  0  0  0
   56.3609  153.0412   -9.0658 H   0  0  0  0  0  0  0  0  0  0  0  0
   54.0086  153.4562   -8.2907 H   0  0  0  0  0  0  0  0  0  0  0  0
   53.9298  151.7599   -7.6294 H   0  0  0  0  0  0  0  0  0  0  0  0
   60.1512  157.9071   -7.6027 H   0  0  0  0  0  0  0  0  0  0  0  0
   59.9764  158.8276   -6.0907 H   0  0  0  0  0  0  0  0  0  0  0  0
   56.8701  156.4928   -5.5866 H   0  0  0  0  0  0  0  0  0  0  0  0
   55.8549  152.2624   -6.1064 H   0  0  0  0  0  0  0  0  0  0  0  0
   55.8742  155.3739   -4.1004 H   0  0  0  0  0  0  0  0  0  0  0  0
   54.7566  154.0111   -4.2501 H   0  0  0  0  0  0  0  0  0  0  0  0
   54.0614  154.7698   -6.5093 H   0  0  0  0  0  0  0  0  0  0  0  0
   55.1642  156.1576   -6.4134 H   0  0  0  0  0  0  0  0  0  0  0  0
   52.6785  155.6760   -5.7685 H   0  0  0  0  0  0  0  0  0  0  0  0
   51.9106  156.6306   -4.5457 H   0  0  0  0  0  0  0  0  0  0  0  0
   55.1374  156.3287   -1.3800 H   0  0  0  0  0  0  0  0  0  0  0  0
  1  8  1  0  0  0  0
  1 14  1  0  0  0  0
  1 15  2  0  0  0  0
  2 10  1  0  0  0  0
  2 12  2  0  0  0  0
  2 13  1  0  0  0  0
  3  4  1  0  0  0  0
  3  7  1  0  0  0  0
  4  8  1  0  0  0  0
  5  6  1  0  0  0  0
  5  9  1  0  0  0  0
  6  9  1  0  0  0  0
  7 17  1  0  0  0  0
  8 17  1  0  0  0  0
  9 14  1  0  0  0  0
 10 11  1  0  0  0  0
 11 14  1  0  0  0  0
 12 16  1  0  0  0  0
  3 18  1  0  0  0  0
  3 19  1  0  0  0  0
  4 20  1  0  0  0  0
  4 21  1  0  0  0  0
  5 22  1  0  0  0  0
  5 23  1  0  0  0  0
  6 24  1  0  0  0  0
  6 25  1  0  0  0  0
  7 26  1  0  0  0  0
  7 27  1  0  0  0  0
  8 28  1  0  0  0  0
  9 29  1  0  0  0  0
 10 30  1  0  0  0  0
 10 31  1  0  0  0  0
 11 32  1  0  0  0  0
 11 33  1  0  0  0  0
 13 34  1  0  0  0  0
 13 35  1  0  0  0  0
 16 36  1  0  0  0  0
M  END
> <FRED Chemgauss4 score>
-7.363227

$$$$
C79000372	P123335450
  -OEChem-05122015073D

 39 40  0     1  0  0  0  0  0999 V2000
   58.1003  157.5614   -5.6820 C   0  0  0  0  0  0  0  0  0  0  0  0
   58.3749  156.2947   -6.1972 C   0  0  0  0  0  0  0  0  0  0  0  0
   56.0504  155.6871   -5.9424 C   0  0  0  0  0  0  0  0  0  0  0  0
   55.7758  156.9539   -5.4272 C   0  0  0  0  0  0  0  0  0  0  0  0
   56.8007  157.8911   -5.2970 C   0  0  0  0  0  0  0  0  0  0  0  0
   57.3500  155.3575   -6.3274 C   0  0  0  0  0  0  0  0  0  0  0  0
   54.4103  157.2715   -5.0314 C   0  0  0  0  0  0  0  0  0  0  0  0
   57.2014  161.4096   -1.4100 C   0  0  0  0  0  0  0  0  0  0  0  0
   56.8292  159.9578   -1.7178 C   0  0  0  0  0  0  0  0  0  0  0  0
   58.5716  161.5277   -0.7643 C   0  0  0  0  0  0  0  0  0  0  0  0
   59.2281  159.2449   -2.2038 C   0  0  0  0  0  0  0  0  0  0  0  0
   57.7798  159.2459   -2.6939 C   0  0  2  0  0  0  0  0  0  0  0  0
   56.5328  159.2616   -4.7455 C   0  0  0  0  0  0  0  0  0  0  0  0
   54.0855  157.0038   -3.7802 N   0  0  0  0  0  0  0  0  0  0  0  0
   53.4821  157.8276   -5.9152 N   0  0  0  0  0  0  0  0  0  0  0  0
   57.6872  159.8018   -4.0455 N   0  0  0  0  0  0  0  0  0  0  0  0
   61.0377  160.6906   -0.9845 O   0  0  0  0  0  0  0  0  0  0  0  0
   59.9080  161.6555   -3.0185 O   0  0  0  0  0  0  0  0  0  0  0  0
   55.1564  156.4520   -3.0699 O   0  0  0  0  0  0  0  0  0  0  0  0
   57.6139  154.1409   -6.8217 F   0  0  0  0  0  0  0  0  0  0  0  0
   59.8538  160.8657   -1.8039 S   0  0  0  0  0  0  0  0  0  0  0  0
   58.9056  158.2846   -5.5837 H   0  0  0  0  0  0  0  0  0  0  0  0
   59.3866  156.0378   -6.4968 H   0  0  0  0  0  0  0  0  0  0  0  0
   55.2612  154.9476   -6.0503 H   0  0  0  0  0  0  0  0  0  0  0  0
   57.1953  161.9844   -2.3415 H   0  0  0  0  0  0  0  0  0  0  0  0
   56.4397  161.8483   -0.7567 H   0  0  0  0  0  0  0  0  0  0  0  0
   56.8016  159.4015   -0.7618 H   0  0  0  0  0  0  0  0  0  0  0  0
   55.7933  159.9251   -2.1073 H   0  0  0  0  0  0  0  0  0  0  0  0
   58.8217  162.5754   -0.5623 H   0  0  0  0  0  0  0  0  0  0  0  0
   58.6050  160.9772    0.1819 H   0  0  0  0  0  0  0  0  0  0  0  0
   59.3392  158.6305   -1.2919 H   0  0  0  0  0  0  0  0  0  0  0  0
   59.9077  158.8171   -2.9642 H   0  0  0  0  0  0  0  0  0  0  0  0
   57.4427  158.1708   -2.7588 H   0  0  0  0  0  0  0  0  0  0  0  0
   56.2704  159.9570   -5.5503 H   0  0  0  0  0  0  0  0  0  0  0  0
   55.6928  159.2452   -4.0431 H   0  0  0  0  0  0  0  0  0  0  0  0
   53.7222  158.0570   -6.8728 H   0  0  0  0  0  0  0  0  0  0  0  0
   52.5418  158.0605   -5.6138 H   0  0  0  0  0  0  0  0  0  0  0  0
   57.6022  160.8136   -3.9798 H   0  0  0  0  0  0  0  0  0  0  0  0
   54.7597  156.3181   -2.1925 H   0  0  0  0  0  0  0  0  0  0  0  0
  1  2  1  0  0  0  0
  1  5  2  0  0  0  0
  2  6  2  0  0  0  0
  3  4  2  0  0  0  0
  3  6  1  0  0  0  0
  4  5  1  0  0  0  0
  4  7  1  0  0  0  0
  5 13  1  0  0  0  0
  6 20  1  0  0  0  0
  7 14  2  0  0  0  0
  7 15  1  0  0  0  0
  8  9  1  0  0  0  0
  8 10  1  0  0  0  0
  9 12  1  0  0  0  0
 10 21  1  0  0  0  0
 11 12  1  0  0  0  0
 11 21  1  0  0  0  0
 12 16  1  0  0  0  0
 13 16  1  0  0  0  0
 14 19  1  0  0  0  0
 17 21  2  0  0  0  0
 18 21  2  0  0  0  0
  1 22  1  0  0  0  0
  2 23  1  0  0  0  0
  3 24  1  0  0  0  0
  8 25  1  0  0  0  0
  8 26  1  0  0  0  0
  9 27  1  0  0  0  0
  9 28  1  0  0  0  0
 10 29  1  0  0  0  0
 10 30  1  0  0  0  0
 11 31  1  0  0  0  0
 11 32  1  0  0  0  0
 12 33  1  0  0  0  0
 13 34  1  0  0  0  0
 13 35  1  0  0  0  0
 15 36  1  0  0  0  0
 15 37  1  0  0  0  0
 16 38  1  0  0  0  0
 19 39  1  0  0  0  0
M  END
> <FRED Chemgauss4 score>
-7.358124

$$$$
C87886071	P137463365
  -OEChem-05122015073D

 36 36  0     1  0  0  0  0  0999 V2000
   53.9119  156.2173   -3.8992 C   0  0  0  0  0  0  0  0  0  0  0  0
   56.9293  156.8167   -5.1414 C   0  0  0  0  0  0  0  0  0  0  0  0
   59.0657  157.8873   -5.8770 C   0  0  0  0  0  0  0  0  0  0  0  0
   55.2012  155.4363   -4.0760 C   0  0  0  0  0  0  0  0  0  0  0  0
   54.1168  154.9790   -6.7282 C   0  0  0  0  0  0  0  0  0  0  0  0
   53.3814  156.2720   -6.4098 C   0  0  0  0  0  0  0  0  0  0  0  0
   55.6210  155.1252   -6.5070 C   0  0  0  0  0  0  0  0  0  0  0  0
   60.3269  153.6606   -6.9779 C   0  0  0  0  0  0  0  0  0  0  0  0
   59.6535  155.0134   -7.1501 C   0  0  0  0  0  0  0  0  0  0  0  0
   58.8131  155.3802   -5.9228 C   0  0  0  0  0  0  0  0  0  0  0  0
   58.1008  156.7308   -6.0873 C   0  0  1  0  0  0  0  0  0  0  0  0
   53.1206  156.4834   -4.9907 N   0  0  0  0  0  0  0  0  0  0  0  0
   55.9501  155.8256   -5.2612 N   0  0  0  0  0  0  0  0  0  0  0  0
   59.6821  157.9503   -4.6557 N   0  0  0  0  0  0  0  0  0  0  0  0
   53.5118  156.4699   -2.7571 O   0  0  0  0  0  0  0  0  0  0  0  0
   56.8823  157.7376   -4.3215 O   0  0  0  0  0  0  0  0  0  0  0  0
   59.3662  159.0217   -7.0700 S   0  0  0  0  0  0  0  0  0  0  0  0
   55.8363  155.5521   -3.1721 H   0  0  0  0  0  0  0  0  0  0  0  0
   54.9486  154.3575   -4.1174 H   0  0  0  0  0  0  0  0  0  0  0  0
   53.7255  154.1603   -6.1209 H   0  0  0  0  0  0  0  0  0  0  0  0
   53.9509  154.7297   -7.7782 H   0  0  0  0  0  0  0  0  0  0  0  0
   53.9254  157.1499   -6.7943 H   0  0  0  0  0  0  0  0  0  0  0  0
   52.3959  156.2646   -6.9012 H   0  0  0  0  0  0  0  0  0  0  0  0
   56.0725  154.1249   -6.4973 H   0  0  0  0  0  0  0  0  0  0  0  0
   56.0892  155.6687   -7.3389 H   0  0  0  0  0  0  0  0  0  0  0  0
   59.5860  152.8725   -6.8095 H   0  0  0  0  0  0  0  0  0  0  0  0
   60.8973  153.4042   -7.8761 H   0  0  0  0  0  0  0  0  0  0  0  0
   61.0173  153.6709   -6.1285 H   0  0  0  0  0  0  0  0  0  0  0  0
   60.4221  155.7770   -7.3164 H   0  0  0  0  0  0  0  0  0  0  0  0
   59.0232  154.9855   -8.0461 H   0  0  0  0  0  0  0  0  0  0  0  0
   59.4689  155.4202   -5.0434 H   0  0  0  0  0  0  0  0  0  0  0  0
   58.0857  154.5798   -5.7351 H   0  0  0  0  0  0  0  0  0  0  0  0
   57.6783  156.7947   -7.0966 H   0  0  0  0  0  0  0  0  0  0  0  0
   52.1938  156.8990   -4.7729 H   0  0  0  0  0  0  0  0  0  0  0  0
   59.5096  157.2709   -3.9221 H   0  0  0  0  0  0  0  0  0  0  0  0
   60.3363  158.6950   -4.4390 H   0  0  0  0  0  0  0  0  0  0  0  0
  1  4  1  0  0  0  0
  1 12  1  0  0  0  0
  1 15  2  0  0  0  0
  2 11  1  0  0  0  0
  2 13  1  0  0  0  0
  2 16  2  0  0  0  0
  3 11  1  0  0  0  0
  3 14  1  0  0  0  0
  3 17  2  0  0  0  0
  4 13  1  0  0  0  0
  5  6  1  0  0  0  0
  5  7  1  0  0  0  0
  6 12  1  0  0  0  0
  7 13  1  0  0  0  0
  8  9  1  0  0  0  0
  9 10  1  0  0  0  0
 10 11  1  0  0  0  0
  4 18  1  0  0  0  0
  4 19  1  0  0  0  0
  5 20  1  0  0  0  0
  5 21  1  0  0  0  0
  6 22  1  0  0  0  0
  6 23  1  0  0  0  0
  7 24  1  0  0  0  0
  7 25  1  0  0  0  0
  8 26  1  0  0  0  0
  8 27  1  0  0  0  0
  8 28  1  0  0  0  0
  9 29  1  0  0  0  0
  9 30  1  0  0  0  0
 10 31  1  0  0  0  0
 10 32  1  0  0  0  0
 11 33  1  0  0  0  0
 12 34  1  0  0  0  0
 14 35  1  0  0  0  0
 14 36  1  0  0  0  0
M  END
> <FRED Chemgauss4 score>
-7.357896

$$$$
C82432959	P128823808
  -OEChem-05122015073D

 31 32  0     1  0  0  0  0  0999 V2000
   59.3639  157.9308   -8.3777 C   0  0  0  0  0  0  0  0  0  0  0  0
   60.2145  156.0492   -8.8943 C   0  0  0  0  0  0  0  0  0  0  0  0
   58.8603  157.0362   -7.4630 C   0  0  0  0  0  0  0  0  0  0  0  0
   53.5658  156.2853   -3.5720 C   0  0  0  0  0  0  0  0  0  0  0  0
   55.0202  156.0283   -3.2300 C   0  0  0  0  0  0  0  0  0  0  0  0
   55.9247  155.7968   -4.4318 C   0  0  0  0  0  0  0  0  0  0  0  0
   54.2405  156.8143   -5.9346 C   0  0  0  0  0  0  0  0  0  0  0  0
   55.6899  156.8871   -5.4732 C   0  0  2  0  0  0  0  0  0  0  0  0
   59.2036  154.5650   -7.1535 C   0  0  0  0  0  0  0  0  0  0  0  0
   57.9159  157.2139   -6.3095 C   0  0  0  0  0  0  0  0  0  0  0  0
   60.2059  157.3100   -9.2661 N   0  0  0  0  0  0  0  0  0  0  0  0
   59.4138  155.8351   -7.8069 N   0  0  0  0  0  0  0  0  0  0  0  0
   53.2995  156.7794   -4.8295 N   0  0  0  0  0  0  0  0  0  0  0  0
   56.5852  156.7077   -6.6120 N   0  0  0  0  0  0  0  0  0  0  0  0
   52.6859  156.1311   -2.7230 O   0  0  0  0  0  0  0  0  0  0  0  0
   59.1644  158.9906   -8.4438 H   0  0  0  0  0  0  0  0  0  0  0  0
   60.7745  155.2550   -9.3688 H   0  0  0  0  0  0  0  0  0  0  0  0
   55.3737  156.8986   -2.6639 H   0  0  0  0  0  0  0  0  0  0  0  0
   55.0695  155.1577   -2.5664 H   0  0  0  0  0  0  0  0  0  0  0  0
   56.9707  155.7913   -4.1021 H   0  0  0  0  0  0  0  0  0  0  0  0
   55.7177  154.8080   -4.8622 H   0  0  0  0  0  0  0  0  0  0  0  0
   53.9808  157.6755   -6.5599 H   0  0  0  0  0  0  0  0  0  0  0  0
   54.0549  155.9080   -6.5241 H   0  0  0  0  0  0  0  0  0  0  0  0
   55.8835  157.8683   -5.0216 H   0  0  0  0  0  0  0  0  0  0  0  0
   59.9593  154.4593   -6.3707 H   0  0  0  0  0  0  0  0  0  0  0  0
   58.1994  154.5396   -6.7214 H   0  0  0  0  0  0  0  0  0  0  0  0
   59.2977  153.7606   -7.8884 H   0  0  0  0  0  0  0  0  0  0  0  0
   58.2845  156.6851   -5.4237 H   0  0  0  0  0  0  0  0  0  0  0  0
   57.8187  158.2709   -6.0403 H   0  0  0  0  0  0  0  0  0  0  0  0
   52.3690  157.1495   -4.9976 H   0  0  0  0  0  0  0  0  0  0  0  0
   56.2074  157.2093   -7.4141 H   0  0  0  0  0  0  0  0  0  0  0  0
  1  3  2  0  0  0  0
  1 11  1  0  0  0  0
  2 11  2  0  0  0  0
  2 12  1  0  0  0  0
  3 10  1  0  0  0  0
  3 12  1  0  0  0  0
  4  5  1  0  0  0  0
  4 13  1  0  0  0  0
  4 15  2  0  0  0  0
  5  6  1  0  0  0  0
  6  8  1  0  0  0  0
  7  8  1  0  0  0  0
  7 13  1  0  0  0  0
  8 14  1  0  0  0  0
  9 12  1  0  0  0  0
 10 14  1  0  0  0  0
  1 16  1  0  0  0  0
  2 17  1  0  0  0  0
  5 18  1  0  0  0  0
  5 19  1  0  0  0  0
  6 20  1  0  0  0  0
  6 21  1  0  0  0  0
  7 22  1  0  0  0  0
  7 23  1  0  0  0  0
  8 24  1  0  0  0  0
  9 25  1  0  0  0  0
  9 26  1  0  0  0  0
  9 27  1  0  0  0  0
 10 28  1  0  0  0  0
 10 29  1  0  0  0  0
 13 30  1  0  0  0  0
 14 31  1  0  0  0  0
M  END
> <FRED Chemgauss4 score>
-7.354707

$$$$
C85963592	P134595762
  -OEChem-05122015073D

 39 40  0     1  0  0  0  0  0999 V2000
   58.2401  159.5168   -0.9396 C   0  0  0  0  0  0  0  0  0  0  0  0
   58.6669  160.9801   -2.8140 C   0  0  0  0  0  0  0  0  0  0  0  0
   56.9611  159.2585   -1.4324 C   0  0  0  0  0  0  0  0  0  0  0  0
   56.5349  159.8609   -2.6161 C   0  0  0  0  0  0  0  0  0  0  0  0
   59.0930  160.3777   -1.6304 C   0  0  0  0  0  0  0  0  0  0  0  0
   57.3878  160.7218   -3.3069 C   0  0  0  0  0  0  0  0  0  0  0  0
   56.8371  154.6714   -5.6636 C   0  0  0  0  0  0  0  0  0  0  0  0
   56.0679  154.5008   -6.9705 C   0  0  0  0  0  0  0  0  0  0  0  0
   55.9298  155.1451   -4.5283 C   0  0  0  0  0  0  0  0  0  0  0  0
   55.2918  155.7586   -7.3455 C   0  0  0  0  0  0  0  0  0  0  0  0
   55.1464  156.4184   -4.8824 C   0  0  2  0  0  0  0  0  0  0  0  0
   54.3834  156.2219   -6.2052 C   0  0  1  0  0  0  0  0  0  0  0  0
   56.0591  157.6515   -4.8928 C   0  0  0  0  0  0  0  0  0  0  0  0
   56.1193  158.3828   -0.7106 N   0  0  0  0  0  0  0  0  0  0  0  0
   55.2728  158.8315   -4.7692 N   0  0  0  0  0  0  0  0  0  0  0  0
   54.3275  158.4876   -2.3897 O   0  0  0  0  0  0  0  0  0  0  0  0
   54.2414  160.7964   -3.3828 O   0  0  0  0  0  0  0  0  0  0  0  0
   53.7271  157.4303   -6.5740 O   0  0  0  0  0  0  0  0  0  0  0  0
   54.9111  159.5196   -3.2254 S   0  0  0  0  0  0  0  0  0  0  0  0
   60.6714  160.6962   -1.0225 Cl  0  0  0  0  0  0  0  0  0  0  0  0
   56.9148  161.4969   -4.7774 Cl  0  0  0  0  0  0  0  0  0  0  0  0
   58.5708  159.0460   -0.0161 H   0  0  0  0  0  0  0  0  0  0  0  0
   59.3347  161.6513   -3.3502 H   0  0  0  0  0  0  0  0  0  0  0  0
   57.2979  153.7159   -5.3856 H   0  0  0  0  0  0  0  0  0  0  0  0
   57.6525  155.3891   -5.8057 H   0  0  0  0  0  0  0  0  0  0  0  0
   56.7704  154.2430   -7.7753 H   0  0  0  0  0  0  0  0  0  0  0  0
   55.3748  153.6540   -6.8790 H   0  0  0  0  0  0  0  0  0  0  0  0
   55.2283  154.3349   -4.2698 H   0  0  0  0  0  0  0  0  0  0  0  0
   56.5406  155.3158   -3.6259 H   0  0  0  0  0  0  0  0  0  0  0  0
   56.0062  156.5495   -7.5984 H   0  0  0  0  0  0  0  0  0  0  0  0
   54.6869  155.5605   -8.2373 H   0  0  0  0  0  0  0  0  0  0  0  0
   54.3908  156.5742   -4.0915 H   0  0  0  0  0  0  0  0  0  0  0  0
   53.5875  155.4627   -6.0558 H   0  0  0  0  0  0  0  0  0  0  0  0
   56.5977  157.6739   -5.8301 H   0  0  0  0  0  0  0  0  0  0  0  0
   56.7440  157.5864   -4.0592 H   0  0  0  0  0  0  0  0  0  0  0  0
   56.4740  157.9332    0.1076 H   0  0  0  0  0  0  0  0  0  0  0  0
   55.2204  158.1573   -1.0829 H   0  0  0  0  0  0  0  0  0  0  0  0
   55.2481  159.4993   -5.5772 H   0  0  0  0  0  0  0  0  0  0  0  0
   53.2084  157.2301   -7.3681 H   0  0  0  0  0  0  0  0  0  0  0  0
  1  3  2  0  0  0  0
  1  5  1  0  0  0  0
  2  5  2  0  0  0  0
  2  6  1  0  0  0  0
  3  4  1  0  0  0  0
  3 14  1  0  0  0  0
  4  6  2  0  0  0  0
  4 19  1  0  0  0  0
  5 20  1  0  0  0  0
  6 21  1  0  0  0  0
  7  8  1  0  0  0  0
  7  9  1  0  0  0  0
  8 10  1  0  0  0  0
  9 11  1  0  0  0  0
 10 12  1  0  0  0  0
 11 12  1  0  0  0  0
 11 13  1  0  0  0  0
 12 18  1  0  0  0  0
 13 15  1  0  0  0  0
 15 19  1  0  0  0  0
 16 19  2  0  0  0  0
 17 19  2  0  0  0  0
  1 22  1  0  0  0  0
  2 23  1  0  0  0  0
  7 24  1  0  0  0  0
  7 25  1  0  0  0  0
  8 26  1  0  0  0  0
  8 27  1  0  0  0  0
  9 28  1  0  0  0  0
  9 29  1  0  0  0  0
 10 30  1  0  0  0  0
 10 31  1  0  0  0  0
 11 32  1  0  0  0  0
 12 33  1  0  0  0  0
 13 34  1  0  0  0  0
 13 35  1  0  0  0  0
 14 36  1  0  0  0  0
 14 37  1  0  0  0  0
 15 38  1  0  0  0  0
 18 39  1  0  0  0  0
M  END
> <FRED Chemgauss4 score>
-7.352095

$$$$
C87600448	P137027764
  -OEChem-05122015073D

 29 30  0     1  0  0  0  0  0999 V2000
   56.7035  154.5877   -6.3586 C   0  0  0  0  0  0  0  0  0  0  0  0
   55.2573  156.0278   -3.1875 C   0  0  0  0  0  0  0  0  0  0  0  0
   58.1000  154.5971   -6.5362 C   0  0  0  0  0  0  0  0  0  0  0  0
   54.1801  156.2065   -4.0148 C   0  0  0  0  0  0  0  0  0  0  0  0
   56.3308  155.9023   -6.4977 C   0  0  0  0  0  0  0  0  0  0  0  0
   59.0186  153.4472   -6.4867 C   0  0  0  0  0  0  0  0  0  0  0  0
   57.6118  158.0142   -6.9595 C   0  0  0  0  0  0  0  0  0  0  0  0
   54.9741  156.5629   -6.4197 C   0  0  0  0  0  0  0  0  0  0  0  0
   54.0036  155.8333   -5.4718 C   0  0  2  0  0  0  0  0  0  0  0  0
   53.6976  156.9892   -2.0829 N   0  5  0  0  0  0  0  0  0  0  0  0
   54.9711  156.5142   -1.9674 N   0  0  0  0  0  0  0  0  0  0  0  0
   53.1891  156.8104   -3.3362 N   0  0  0  0  0  0  0  0  0  0  0  0
   58.5817  155.8206   -6.7704 N   0  0  0  0  0  0  0  0  0  0  0  0
   57.4819  156.5923   -6.7410 N   0  0  0  0  0  0  0  0  0  0  0  0
   52.6167  156.1128   -5.9684 N   0  3  0  0  0  0  0  0  0  0  0  0
   56.0568  153.7458   -6.1569 H   0  0  0  0  0  0  0  0  0  0  0  0
   56.2094  155.5735   -3.4266 H   0  0  0  0  0  0  0  0  0  0  0  0
   59.1411  152.9890   -7.4832 H   0  0  0  0  0  0  0  0  0  0  0  0
   60.0233  153.7310   -6.1258 H   0  0  0  0  0  0  0  0  0  0  0  0
   58.6630  152.6584   -5.7997 H   0  0  0  0  0  0  0  0  0  0  0  0
   57.7711  158.4914   -5.9889 H   0  0  0  0  0  0  0  0  0  0  0  0
   58.4599  158.2047   -7.6230 H   0  0  0  0  0  0  0  0  0  0  0  0
   56.6988  158.3928   -7.4276 H   0  0  0  0  0  0  0  0  0  0  0  0
   54.5465  156.6482   -7.4274 H   0  0  0  0  0  0  0  0  0  0  0  0
   55.1245  157.5966   -6.0790 H   0  0  0  0  0  0  0  0  0  0  0  0
   54.1202  154.7489   -5.5884 H   0  0  0  0  0  0  0  0  0  0  0  0
   52.3654  157.0833   -5.7804 H   0  0  0  0  0  0  0  0  0  0  0  0
   51.9469  155.5028   -5.4993 H   0  0  0  0  0  0  0  0  0  0  0  0
   52.5640  155.9480   -6.9737 H   0  0  0  0  0  0  0  0  0  0  0  0
  1  3  1  0  0  0  0
  1  5  2  0  0  0  0
  2  4  1  0  0  0  0
  2 11  2  0  0  0  0
  3  6  1  0  0  0  0
  3 13  2  0  0  0  0
  4  9  1  0  0  0  0
  4 12  2  0  0  0  0
  5  8  1  0  0  0  0
  5 14  1  0  0  0  0
  7 14  1  0  0  0  0
  8  9  1  0  0  0  0
  9 15  1  0  0  0  0
 10 11  1  0  0  0  0
 10 12  1  0  0  0  0
 13 14  1  0  0  0  0
  1 16  1  0  0  0  0
  2 17  1  0  0  0  0
  6 18  1  0  0  0  0
  6 19  1  0  0  0  0
  6 20  1  0  0  0  0
  7 21  1  0  0  0  0
  7 22  1  0  0  0  0
  7 23  1  0  0  0  0
  8 24  1  0  0  0  0
  8 25  1  0  0  0  0
  9 26  1  0  0  0  0
 15 27  1  0  0  0  0
 15 28  1  0  0  0  0
 15 29  1  0  0  0  0
M  CHG  2  10  -1  15   1
M  END
> <FRED Chemgauss4 score>
-7.348856

$$$$
C91016112	P142397436
  -OEChem-05122015073D

 37 40  0     0  0  0  0  0  0999 V2000
   56.4941  158.7548   -2.7916 C   0  0  0  0  0  0  0  0  0  0  0  0
   56.6180  158.2924   -4.1005 C   0  0  0  0  0  0  0  0  0  0  0  0
   60.0919  157.8847   -8.5337 C   0  0  0  0  0  0  0  0  0  0  0  0
   58.8423  157.6495   -7.9562 C   0  0  0  0  0  0  0  0  0  0  0  0
   59.5045  155.3928   -7.3311 C   0  0  0  0  0  0  0  0  0  0  0  0
   55.2717  158.6173   -2.1477 C   0  0  0  0  0  0  0  0  0  0  0  0
   53.8748  156.7276   -5.9353 C   0  0  0  0  0  0  0  0  0  0  0  0
   55.4900  157.7086   -4.6993 C   0  0  0  0  0  0  0  0  0  0  0  0
   61.0357  156.8723   -8.4899 C   0  0  0  0  0  0  0  0  0  0  0  0
   60.7448  155.6390   -7.8950 C   0  0  0  0  0  0  0  0  0  0  0  0
   55.1923  157.1315   -5.9621 C   0  0  0  0  0  0  0  0  0  0  0  0
   58.5508  156.4127   -7.3591 C   0  0  0  0  0  0  0  0  0  0  0  0
   54.3270  157.6347   -3.9382 C   0  0  0  0  0  0  0  0  0  0  0  0
   62.4158  156.8732   -9.0671 C   0  0  0  0  0  0  0  0  0  0  0  0
   61.9031  154.7004   -8.0205 C   0  0  0  0  0  0  0  0  0  0  0  0
   63.0452  155.6785   -8.3347 C   0  0  0  0  0  0  0  0  0  0  0  0
   56.1334  156.9836   -7.1225 C   0  0  0  0  0  0  0  0  0  0  0  0
   54.1541  158.0647   -2.6740 N   0  0  0  0  0  0  0  0  0  0  0  0
   53.3598  157.0381   -4.7034 N   0  0  0  0  0  0  0  0  0  0  0  0
   57.2785  156.1974   -6.7857 N   0  0  0  0  0  0  0  0  0  0  0  0
   57.3375  159.2135   -2.2866 H   0  0  0  0  0  0  0  0  0  0  0  0
   57.5597  158.3840   -4.6319 H   0  0  0  0  0  0  0  0  0  0  0  0
   60.3112  158.8370   -9.0046 H   0  0  0  0  0  0  0  0  0  0  0  0
   58.0920  158.4366   -7.9789 H   0  0  0  0  0  0  0  0  0  0  0  0
   59.2836  154.4296   -6.8817 H   0  0  0  0  0  0  0  0  0  0  0  0
   55.1570  158.9713   -1.1266 H   0  0  0  0  0  0  0  0  0  0  0  0
   53.2569  156.2469   -6.6810 H   0  0  0  0  0  0  0  0  0  0  0  0
   62.3732  156.6977  -10.1466 H   0  0  0  0  0  0  0  0  0  0  0  0
   62.9577  157.7998   -8.8580 H   0  0  0  0  0  0  0  0  0  0  0  0
   62.0949  154.1456   -7.0979 H   0  0  0  0  0  0  0  0  0  0  0  0
   61.7374  154.0061   -8.8503 H   0  0  0  0  0  0  0  0  0  0  0  0
   63.8491  155.2107   -8.9119 H   0  0  0  0  0  0  0  0  0  0  0  0
   63.4872  156.0286   -7.3912 H   0  0  0  0  0  0  0  0  0  0  0  0
   55.6307  156.5022   -7.9684 H   0  0  0  0  0  0  0  0  0  0  0  0
   56.4879  157.9604   -7.4680 H   0  0  0  0  0  0  0  0  0  0  0  0
   52.4116  156.8563   -4.4051 H   0  0  0  0  0  0  0  0  0  0  0  0
   57.2033  155.4561   -6.1160 H   0  0  0  0  0  0  0  0  0  0  0  0
  1  2  1  0  0  0  0
  1  6  2  0  0  0  0
  2  8  2  0  0  0  0
  3  4  2  0  0  0  0
  3  9  1  0  0  0  0
  4 12  1  0  0  0  0
  5 10  1  0  0  0  0
  5 12  2  0  0  0  0
  6 18  1  0  0  0  0
  7 11  2  0  0  0  0
  7 19  1  0  0  0  0
  8 11  1  0  0  0  0
  8 13  1  0  0  0  0
  9 10  2  0  0  0  0
  9 14  1  0  0  0  0
 10 15  1  0  0  0  0
 11 17  1  0  0  0  0
 12 20  1  0  0  0  0
 13 18  2  0  0  0  0
 13 19  1  0  0  0  0
 14 16  1  0  0  0  0
 15 16  1  0  0  0  0
 17 20  1  0  0  0  0
  1 21  1  0  0  0  0
  2 22  1  0  0  0  0
  3 23  1  0  0  0  0
  4 24  1  0  0  0  0
  5 25  1  0  0  0  0
  6 26  1  0  0  0  0
  7 27  1  0  0  0  0
 14 28  1  0  0  0  0
 14 29  1  0  0  0  0
 15 30  1  0  0  0  0
 15 31  1  0  0  0  0
 16 32  1  0  0  0  0
 16 33  1  0  0  0  0
 17 34  1  0  0  0  0
 17 35  1  0  0  0  0
 19 36  1  0  0  0  0
 20 37  1  0  0  0  0
M  END
> <FRED Chemgauss4 score>
-7.342915

$$$$
C92954709	P145532580
  -OEChem-05122015073D

 44 45  0     1  0  0  0  0  0999 V2000
   55.1706  158.7571   -2.6704 C   0  0  0  0  0  0  0  0  0  0  0  0
   57.1502  160.6731   -0.3961 C   0  0  0  0  0  0  0  0  0  0  0  0
   58.1236  161.4125   -1.3151 C   0  0  0  0  0  0  0  0  0  0  0  0
   54.7092  156.7474   -4.0534 C   0  0  0  0  0  0  0  0  0  0  0  0
   56.8446  159.2749   -0.9243 C   0  0  0  0  0  0  0  0  0  0  0  0
   57.3261  159.9830   -3.2406 C   0  0  0  0  0  0  0  0  0  0  0  0
   54.1849  156.5089   -5.4535 C   0  0  0  0  0  0  0  0  0  0  0  0
   55.0593  158.2267   -4.0637 C   0  0  1  0  0  0  0  0  0  0  0  0
   57.6645  161.4099   -2.7825 C   0  0  1  0  0  0  0  0  0  0  0  0
   53.8907  158.8525   -4.8197 C   0  0  1  0  0  0  0  0  0  0  0  0
   54.2497  160.1268   -5.5627 C   0  0  0  0  0  0  0  0  0  0  0  0
   56.4825  162.3573   -3.0077 C   0  0  0  0  0  0  0  0  0  0  0  0
   56.8687  163.7251   -2.7049 N   0  5  0  0  0  0  0  0  0  0  0  0
   56.3918  159.3286   -2.3149 N   0  0  0  0  0  0  0  0  0  0  0  0
   55.9290  165.1634   -4.5903 N   0  0  0  0  0  0  0  0  0  0  0  0
   53.4818  157.7867   -5.8064 N   0  3  0  0  0  0  0  0  0  0  0  0
   54.2000  158.6713   -1.9137 O   0  0  0  0  0  0  0  0  0  0  0  0
   54.3320  164.1587   -2.9096 O   0  0  0  0  0  0  0  0  0  0  0  0
   55.7945  166.0200   -2.2173 O   0  0  0  0  0  0  0  0  0  0  0  0
   55.6677  164.7490   -2.9254 S   0  0  0  0  0  0  0  0  0  0  0  0
   57.5902  160.5970    0.6061 H   0  0  0  0  0  0  0  0  0  0  0  0
   56.2215  161.2464   -0.2996 H   0  0  0  0  0  0  0  0  0  0  0  0
   58.2358  162.4516   -0.9603 H   0  0  0  0  0  0  0  0  0  0  0  0
   59.1222  160.9520   -1.2332 H   0  0  0  0  0  0  0  0  0  0  0  0
   53.9340  156.5214   -3.3084 H   0  0  0  0  0  0  0  0  0  0  0  0
   55.5747  156.1151   -3.8254 H   0  0  0  0  0  0  0  0  0  0  0  0
   57.7322  158.6413   -0.8262 H   0  0  0  0  0  0  0  0  0  0  0  0
   56.0440  158.8090   -0.3368 H   0  0  0  0  0  0  0  0  0  0  0  0
   56.8399  159.9976   -4.2272 H   0  0  0  0  0  0  0  0  0  0  0  0
   58.2495  159.4062   -3.3565 H   0  0  0  0  0  0  0  0  0  0  0  0
   54.9943  156.3821   -6.1792 H   0  0  0  0  0  0  0  0  0  0  0  0
   53.4706  155.6851   -5.5254 H   0  0  0  0  0  0  0  0  0  0  0  0
   56.0136  158.3929   -4.5753 H   0  0  0  0  0  0  0  0  0  0  0  0
   58.5089  161.7716   -3.3999 H   0  0  0  0  0  0  0  0  0  0  0  0
   53.0191  159.0212   -4.1727 H   0  0  0  0  0  0  0  0  0  0  0  0
   55.1161  159.9585   -6.2056 H   0  0  0  0  0  0  0  0  0  0  0  0
   54.4894  160.9227   -4.8547 H   0  0  0  0  0  0  0  0  0  0  0  0
   53.4119  160.4515   -6.1832 H   0  0  0  0  0  0  0  0  0  0  0  0
   55.6498  162.0319   -2.3768 H   0  0  0  0  0  0  0  0  0  0  0  0
   56.1510  162.2602   -4.0462 H   0  0  0  0  0  0  0  0  0  0  0  0
   55.2123  164.8403   -5.2528 H   0  0  0  0  0  0  0  0  0  0  0  0
   56.2247  166.1312   -4.7725 H   0  0  0  0  0  0  0  0  0  0  0  0
   53.7051  158.0543   -6.7750 H   0  0  0  0  0  0  0  0  0  0  0  0
   52.4615  157.6549   -5.7724 H   0  0  0  0  0  0  0  0  0  0  0  0
  1  8  1  0  0  0  0
  1 14  1  0  0  0  0
  1 17  2  0  0  0  0
  2  3  1  0  0  0  0
  2  5  1  0  0  0  0
  3  9  1  0  0  0  0
  4  7  1  0  0  0  0
  4  8  1  0  0  0  0
  5 14  1  0  0  0  0
  6  9  1  0  0  0  0
  6 14  1  0  0  0  0
  7 16  1  0  0  0  0
  8 10  1  0  0  0  0
  9 12  1  0  0  0  0
 10 11  1  0  0  0  0
 10 16  1  0  0  0  0
 12 13  1  0  0  0  0
 13 20  1  0  0  0  0
 15 20  1  0  0  0  0
 18 20  2  0  0  0  0
 19 20  2  0  0  0  0
  2 21  1  0  0  0  0
  2 22  1  0  0  0  0
  3 23  1  0  0  0  0
  3 24  1  0  0  0  0
  4 25  1  0  0  0  0
  4 26  1  0  0  0  0
  5 27  1  0  0  0  0
  5 28  1  0  0  0  0
  6 29  1  0  0  0  0
  6 30  1  0  0  0  0
  7 31  1  0  0  0  0
  7 32  1  0  0  0  0
  8 33  1  0  0  0  0
  9 34  1  0  0  0  0
 10 35  1  0  0  0  0
 11 36  1  0  0  0  0
 11 37  1  0  0  0  0
 11 38  1  0  0  0  0
 12 39  1  0  0  0  0
 12 40  1  0  0  0  0
 15 41  1  0  0  0  0
 15 42  1  0  0  0  0
 16 43  1  0  0  0  0
 16 44  1  0  0  0  0
M  CHG  2  13  -1  16   1
M  END
> <FRED Chemgauss4 score>
-7.342137

$$$$
C87446939	P136794831
  -OEChem-05122015073D

 26 26  0     0  0  0  0  0  0999 V2000
   54.1753  156.0375   -4.1339 C   0  0  0  0  0  0  0  0  0  0  0  0
   54.6787  154.6295   -5.5903 C   0  0  0  0  0  0  0  0  0  0  0  0
   54.3740  156.9968   -3.0170 C   0  0  0  0  0  0  0  0  0  0  0  0
   55.3648  153.6939   -6.4771 C   0  0  0  0  0  0  0  0  0  0  0  0
   55.9604  158.5688   -1.9363 C   0  0  0  0  0  0  0  0  0  0  0  0
   55.0262  159.7631   -1.9039 C   0  0  0  0  0  0  0  0  0  0  0  0
   55.2393  155.3556   -4.6512 N   0  0  0  0  0  0  0  0  0  0  0  0
   53.3414  154.8755   -5.6222 N   0  0  0  0  0  0  0  0  0  0  0  0
   52.9916  155.7790   -4.6939 N   0  0  0  0  0  0  0  0  0  0  0  0
   53.9414  161.9108   -3.0272 N   0  0  0  0  0  0  0  0  0  0  0  0
   55.6089  157.6330   -2.9693 N   0  0  0  0  0  0  0  0  0  0  0  0
   53.4716  157.1621   -2.2004 O   0  0  0  0  0  0  0  0  0  0  0  0
   56.3868  161.2908   -3.5294 O   0  0  0  0  0  0  0  0  0  0  0  0
   54.5261  159.8607   -4.4667 O   0  0  0  0  0  0  0  0  0  0  0  0
   55.0700  160.6904   -3.4058 S   0  0  0  0  0  0  0  0  0  0  0  0
   55.4033  152.6723   -6.0498 H   0  0  0  0  0  0  0  0  0  0  0  0
   54.8787  153.6088   -7.4708 H   0  0  0  0  0  0  0  0  0  0  0  0
   56.4118  153.9932   -6.6901 H   0  0  0  0  0  0  0  0  0  0  0  0
   56.9975  158.8743   -2.1064 H   0  0  0  0  0  0  0  0  0  0  0  0
   55.9117  158.0271   -0.9867 H   0  0  0  0  0  0  0  0  0  0  0  0
   55.3199  160.4549   -1.1087 H   0  0  0  0  0  0  0  0  0  0  0  0
   53.9866  159.4617   -1.7436 H   0  0  0  0  0  0  0  0  0  0  0  0
   52.0347  156.0943   -4.5607 H   0  0  0  0  0  0  0  0  0  0  0  0
   54.2993  162.8604   -2.8667 H   0  0  0  0  0  0  0  0  0  0  0  0
   53.0321  161.8863   -3.5049 H   0  0  0  0  0  0  0  0  0  0  0  0
   56.3275  157.3933   -3.6498 H   0  0  0  0  0  0  0  0  0  0  0  0
  1  3  1  0  0  0  0
  1  7  2  0  0  0  0
  1  9  1  0  0  0  0
  2  4  1  0  0  0  0
  2  7  1  0  0  0  0
  2  8  2  0  0  0  0
  3 11  1  0  0  0  0
  3 12  2  0  0  0  0
  5  6  1  0  0  0  0
  5 11  1  0  0  0  0
  6 15  1  0  0  0  0
  8  9  1  0  0  0  0
 10 15  1  0  0  0  0
 13 15  2  0  0  0  0
 14 15  2  0  0  0  0
  4 16  1  0  0  0  0
  4 17  1  0  0  0  0
  4 18  1  0  0  0  0
  5 19  1  0  0  0  0
  5 20  1  0  0  0  0
  6 21  1  0  0  0  0
  6 22  1  0  0  0  0
  9 23  1  0  0  0  0
 10 24  1  0  0  0  0
 10 25  1  0  0  0  0
 11 26  1  0  0  0  0
M  END
> <FRED Chemgauss4 score>
-7.337257

$$$$
C83139589	P129949964
  -OEChem-05122015073D

 31 32  0     0  0  0  0  0  0999 V2000
   55.5960  157.1166   -5.0191 C   0  0  0  0  0  0  0  0  0  0  0  0
   56.2868  157.6864   -3.9554 C   0  0  0  0  0  0  0  0  0  0  0  0
   54.1890  156.0167   -3.4484 C   0  0  0  0  0  0  0  0  0  0  0  0
   54.5259  156.2647   -4.7693 C   0  0  0  0  0  0  0  0  0  0  0  0
   55.8709  157.3750   -2.6710 C   0  0  0  0  0  0  0  0  0  0  0  0
   59.5681  161.1256   -1.9776 C   0  0  0  0  0  0  0  0  0  0  0  0
   59.4174  159.9258   -2.8706 C   0  0  0  0  0  0  0  0  0  0  0  0
   58.5368  160.0781   -1.6612 C   0  0  0  0  0  0  0  0  0  0  0  0
   53.7665  155.6411   -5.8858 C   0  0  0  0  0  0  0  0  0  0  0  0
   57.0873  160.3804   -1.8220 C   0  0  0  0  0  0  0  0  0  0  0  0
   54.8362  156.5518   -2.3890 N   0  0  0  0  0  0  0  0  0  0  0  0
   56.4955  157.8898   -1.5840 N   0  5  0  0  0  0  0  0  0  0  0  0
   52.6093  156.4590   -6.3483 N   0  3  0  0  0  0  0  0  0  0  0  0
   56.5001  159.4468    0.4779 O   0  0  0  0  0  0  0  0  0  0  0  0
   54.7052  159.7129   -1.2008 O   0  0  0  0  0  0  0  0  0  0  0  0
   56.0642  159.2609   -0.9055 S   0  0  0  0  0  0  0  0  0  0  0  0
   55.8985  157.3415   -6.0382 H   0  0  0  0  0  0  0  0  0  0  0  0
   57.1223  158.3535   -4.1442 H   0  0  0  0  0  0  0  0  0  0  0  0
   53.3626  155.3611   -3.1916 H   0  0  0  0  0  0  0  0  0  0  0  0
   60.4551  161.1843   -1.3590 H   0  0  0  0  0  0  0  0  0  0  0  0
   59.2185  162.0798   -2.3522 H   0  0  0  0  0  0  0  0  0  0  0  0
   58.9670  160.0758   -3.8441 H   0  0  0  0  0  0  0  0  0  0  0  0
   60.2033  159.1811   -2.8496 H   0  0  0  0  0  0  0  0  0  0  0  0
   58.7251  159.4259   -0.8169 H   0  0  0  0  0  0  0  0  0  0  0  0
   54.3993  155.4803   -6.7712 H   0  0  0  0  0  0  0  0  0  0  0  0
   53.3535  154.6617   -5.6021 H   0  0  0  0  0  0  0  0  0  0  0  0
   56.7621  160.3039   -2.8720 H   0  0  0  0  0  0  0  0  0  0  0  0
   56.8327  161.3913   -1.4653 H   0  0  0  0  0  0  0  0  0  0  0  0
   52.9332  157.3210   -6.7939 H   0  0  0  0  0  0  0  0  0  0  0  0
   52.0089  156.7107   -5.5588 H   0  0  0  0  0  0  0  0  0  0  0  0
   52.0480  155.9372   -7.0262 H   0  0  0  0  0  0  0  0  0  0  0  0
  1  2  1  0  0  0  0
  1  4  2  0  0  0  0
  2  5  2  0  0  0  0
  3  4  1  0  0  0  0
  3 11  2  0  0  0  0
  4  9  1  0  0  0  0
  5 11  1  0  0  0  0
  5 12  1  0  0  0  0
  6  7  1  0  0  0  0
  6  8  1  0  0  0  0
  7  8  1  0  0  0  0
  8 10  1  0  0  0  0
  9 13  1  0  0  0  0
 10 16  1  0  0  0  0
 12 16  1  0  0  0  0
 14 16  2  0  0  0  0
 15 16  2  0  0  0  0
  1 17  1  0  0  0  0
  2 18  1  0  0  0  0
  3 19  1  0  0  0  0
  6 20  1  0  0  0  0
  6 21  1  0  0  0  0
  7 22  1  0  0  0  0
  7 23  1  0  0  0  0
  8 24  1  0  0  0  0
  9 25  1  0  0  0  0
  9 26  1  0  0  0  0
 10 27  1  0  0  0  0
 10 28  1  0  0  0  0
 13 29  1  0  0  0  0
 13 30  1  0  0  0  0
 13 31  1  0  0  0  0
M  CHG  2  12  -1  13   1
M  END
> <FRED Chemgauss4 score>
-7.336941

$$$$
C51818984	P77620782
  -OEChem-05122015073D

 32 32  0     1  0  0  0  0  0999 V2000
   58.9725  153.4455   -6.7683 C   0  0  0  0  0  0  0  0  0  0  0  0
   57.5966  153.4116   -6.5415 C   0  0  0  0  0  0  0  0  0  0  0  0
   58.9150  155.8608   -6.7559 C   0  0  0  0  0  0  0  0  0  0  0  0
   59.6317  154.6702   -6.8755 C   0  0  0  0  0  0  0  0  0  0  0  0
   57.5391  155.8269   -6.5291 C   0  0  0  0  0  0  0  0  0  0  0  0
   56.8799  154.6022   -6.4220 C   0  0  0  0  0  0  0  0  0  0  0  0
   55.0337  159.4116   -1.8341 C   0  0  0  0  0  0  0  0  0  0  0  0
   58.1656  157.8071   -4.1102 C   0  0  0  0  0  0  0  0  0  0  0  0
   55.8380  158.6086   -4.0788 C   0  0  0  0  0  0  0  0  0  0  0  0
   55.6032  158.2361   -2.6170 C   0  0  2  0  0  0  0  0  0  0  0  0
   61.0228  154.7042   -7.1043 N   0  0  0  0  0  0  0  0  0  0  0  0
   56.7806  157.6888   -4.6746 N   0  0  1  0  0  0  0  0  0  0  0  0
   57.4683  158.3667   -7.0887 O   0  0  0  0  0  0  0  0  0  0  0  0
   55.3057  157.1364   -6.7833 O   0  0  0  0  0  0  0  0  0  0  0  0
   54.6698  157.1588   -2.5654 O   0  0  0  0  0  0  0  0  0  0  0  0
   56.6818  157.3699   -6.3857 S   0  0  0  0  0  0  0  0  0  0  0  0
   55.1787  154.5052   -6.1413 Cl  0  0  0  0  0  0  0  0  0  0  0  0
   59.5215  152.5119   -6.8596 H   0  0  0  0  0  0  0  0  0  0  0  0
   57.0987  152.4485   -6.4604 H   0  0  0  0  0  0  0  0  0  0  0  0
   59.4317  156.8144   -6.8397 H   0  0  0  0  0  0  0  0  0  0  0  0
   54.1000  159.7703   -2.2779 H   0  0  0  0  0  0  0  0  0  0  0  0
   54.8444  159.1333   -0.7914 H   0  0  0  0  0  0  0  0  0  0  0  0
   55.7492  160.2408   -1.8132 H   0  0  0  0  0  0  0  0  0  0  0  0
   58.8321  157.0902   -4.5967 H   0  0  0  0  0  0  0  0  0  0  0  0
   58.1545  157.6044   -3.0359 H   0  0  0  0  0  0  0  0  0  0  0  0
   58.5549  158.8158   -4.2725 H   0  0  0  0  0  0  0  0  0  0  0  0
   54.9021  158.5657   -4.6463 H   0  0  0  0  0  0  0  0  0  0  0  0
   56.2425  159.6228   -4.1594 H   0  0  0  0  0  0  0  0  0  0  0  0
   56.5362  157.8974   -2.1519 H   0  0  0  0  0  0  0  0  0  0  0  0
   61.5326  153.8446   -7.1407 H   0  0  0  0  0  0  0  0  0  0  0  0
   61.4911  155.5874   -7.1321 H   0  0  0  0  0  0  0  0  0  0  0  0
   54.5574  156.9369   -1.6285 H   0  0  0  0  0  0  0  0  0  0  0  0
  1  2  2  0  0  0  0
  1  4  1  0  0  0  0
  2  6  1  0  0  0  0
  3  4  2  0  0  0  0
  3  5  1  0  0  0  0
  4 11  1  0  0  0  0
  5  6  2  0  0  0  0
  5 16  1  0  0  0  0
  6 17  1  0  0  0  0
  7 10  1  0  0  0  0
  8 12  1  0  0  0  0
  9 10  1  0  0  0  0
  9 12  1  0  0  0  0
 10 15  1  0  0  0  0
 12 16  1  0  0  0  0
 13 16  2  0  0  0  0
 14 16  2  0  0  0  0
  1 18  1  0  0  0  0
  2 19  1  0  0  0  0
  3 20  1  0  0  0  0
  7 21  1  0  0  0  0
  7 22  1  0  0  0  0
  7 23  1  0  0  0  0
  8 24  1  0  0  0  0
  8 25  1  0  0  0  0
  8 26  1  0  0  0  0
  9 27  1  0  0  0  0
  9 28  1  0  0  0  0
 10 29  1  0  0  0  0
 11 30  1  0  0  0  0
 11 31  1  0  0  0  0
 15 32  1  0  0  0  0
M  END
> <FRED Chemgauss4 score>
-7.325061

$$$$
C72200439	P112158916
  -OEChem-05122015073D

 24 24  0     1  0  0  0  0  0999 V2000
   58.7116  158.4100   -6.3987 C   0  0  0  0  0  0  0  0  0  0  0  0
   56.4016  157.6952   -6.0315 C   0  0  0  0  0  0  0  0  0  0  0  0
   58.1061  156.0423   -6.4783 C   0  0  0  0  0  0  0  0  0  0  0  0
   57.7318  157.3744   -6.3020 C   0  0  0  0  0  0  0  0  0  0  0  0
   55.4456  156.6838   -5.9372 C   0  0  0  0  0  0  0  0  0  0  0  0
   55.8198  155.3517   -6.1135 C   0  0  0  0  0  0  0  0  0  0  0  0
   57.1501  155.0309   -6.3841 C   0  0  0  0  0  0  0  0  0  0  0  0
   53.0675  156.6548   -6.7586 C   0  0  0  0  0  0  0  0  0  0  0  0
   54.0173  157.0927   -5.6415 C   0  0  1  0  0  0  0  0  0  0  0  0
   59.5074  159.2511   -6.4772 N   0  0  0  0  0  0  0  0  0  0  0  0
   53.5918  156.5745   -4.3597 N   0  0  0  0  0  0  0  0  0  0  0  0
   51.8356  157.4843   -6.7198 N   0  3  0  0  0  0  0  0  0  0  0  0
   54.9527  154.4097   -6.0300 O   0  5  0  0  0  0  0  0  0  0  0  0
   57.5382  153.7572   -6.5582 F   0  0  0  0  0  0  0  0  0  0  0  0
   56.1058  158.7333   -5.8933 H   0  0  0  0  0  0  0  0  0  0  0  0
   59.1390  155.7765   -6.6897 H   0  0  0  0  0  0  0  0  0  0  0  0
   53.4969  156.7864   -7.7572 H   0  0  0  0  0  0  0  0  0  0  0  0
   52.7449  155.6154   -6.6387 H   0  0  0  0  0  0  0  0  0  0  0  0
   53.9700  158.1849   -5.5447 H   0  0  0  0  0  0  0  0  0  0  0  0
   52.6091  156.4863   -4.1766 H   0  0  0  0  0  0  0  0  0  0  0  0
   54.2648  156.5085   -3.6182 H   0  0  0  0  0  0  0  0  0  0  0  0
   51.0060  156.9149   -6.9141 H   0  0  0  0  0  0  0  0  0  0  0  0
   51.8782  158.2327   -7.4190 H   0  0  0  0  0  0  0  0  0  0  0  0
   51.7158  157.9167   -5.7983 H   0  0  0  0  0  0  0  0  0  0  0  0
  1  4  1  0  0  0  0
  1 10  3  0  0  0  0
  2  4  1  0  0  0  0
  2  5  2  0  0  0  0
  3  4  2  0  0  0  0
  3  7  1  0  0  0  0
  5  6  1  0  0  0  0
  5  9  1  0  0  0  0
  6  7  2  0  0  0  0
  6 13  1  0  0  0  0
  7 14  1  0  0  0  0
  8  9  1  0  0  0  0
  8 12  1  0  0  0  0
  9 11  1  0  0  0  0
  2 15  1  0  0  0  0
  3 16  1  0  0  0  0
  8 17  1  0  0  0  0
  8 18  1  0  0  0  0
  9 19  1  0  0  0  0
 11 20  1  0  0  0  0
 11 21  1  0  0  0  0
 12 22  1  0  0  0  0
 12 23  1  0  0  0  0
 12 24  1  0  0  0  0
M  CHG  2  12   1  13  -1
M  END
> <FRED Chemgauss4 score>
-7.323669

$$$$
C97321337	P154123694
  -OEChem-05122015073D

 35 36  0     1  0  0  0  0  0999 V2000
   58.4534  157.4201   -6.0371 C   0  0  0  0  0  0  0  0  0  0  0  0
   57.5550  158.0849   -5.2289 C   0  0  0  0  0  0  0  0  0  0  0  0
   58.9291  159.7463   -5.6307 C   0  0  0  0  0  0  0  0  0  0  0  0
   53.6243  157.4258   -6.0504 C   0  0  0  0  0  0  0  0  0  0  0  0
   53.7529  155.9105   -4.0938 C   0  0  0  0  0  0  0  0  0  0  0  0
   59.4861  161.0563   -5.5964 C   0  0  0  0  0  0  0  0  0  0  0  0
   54.9606  156.9054   -6.5189 C   0  0  0  0  0  0  0  0  0  0  0  0
   55.0822  155.3892   -4.6048 C   0  0  1  0  0  0  0  0  0  0  0  0
   56.1507  153.4845   -5.8133 C   0  0  0  0  0  0  0  0  0  0  0  0
   56.3326  157.4846   -4.5969 C   0  0  0  0  0  0  0  0  0  0  0  0
   54.8589  154.0890   -5.3788 C   0  0  0  0  0  0  0  0  0  0  0  0
   57.8263  159.4187   -4.9945 N   0  0  0  0  0  0  0  0  0  0  0  0
   53.1236  156.8525   -4.8927 N   0  0  0  0  0  0  0  0  0  0  0  0
   55.7697  156.4062   -5.4093 N   0  0  2  0  0  0  0  0  0  0  0  0
   61.2638  162.5222   -6.3613 N   0  0  0  0  0  0  0  0  0  0  0  0
   60.6751  161.2713   -6.3253 N   0  0  0  0  0  0  0  0  0  0  0  0
   53.0068  158.2721   -6.6970 O   0  0  0  0  0  0  0  0  0  0  0  0
   53.2504  155.4753   -3.0571 O   0  0  0  0  0  0  0  0  0  0  0  0
   58.9693  162.0232   -4.9786 O   0  0  0  0  0  0  0  0  0  0  0  0
   59.6912  158.4997   -6.5307 S   0  0  0  0  0  0  0  0  0  0  0  0
   58.4444  156.3871   -6.3545 H   0  0  0  0  0  0  0  0  0  0  0  0
   54.7478  156.0874   -7.2312 H   0  0  0  0  0  0  0  0  0  0  0  0
   55.4704  157.7088   -7.0830 H   0  0  0  0  0  0  0  0  0  0  0  0
   55.6982  155.1299   -3.7143 H   0  0  0  0  0  0  0  0  0  0  0  0
   56.6869  154.1944   -6.4541 H   0  0  0  0  0  0  0  0  0  0  0  0
   55.9819  152.5682   -6.3890 H   0  0  0  0  0  0  0  0  0  0  0  0
   56.7872  153.2568   -4.9517 H   0  0  0  0  0  0  0  0  0  0  0  0
   56.5705  157.0740   -3.6095 H   0  0  0  0  0  0  0  0  0  0  0  0
   55.5521  158.2396   -4.4556 H   0  0  0  0  0  0  0  0  0  0  0  0
   54.3175  153.3895   -4.7402 H   0  0  0  0  0  0  0  0  0  0  0  0
   54.2369  154.3018   -6.2494 H   0  0  0  0  0  0  0  0  0  0  0  0
   52.1974  157.1553   -4.5991 H   0  0  0  0  0  0  0  0  0  0  0  0
   61.6911  162.6200   -7.2814 H   0  0  0  0  0  0  0  0  0  0  0  0
   60.5075  163.2045   -6.3291 H   0  0  0  0  0  0  0  0  0  0  0  0
   61.1022  160.5007   -6.8278 H   0  0  0  0  0  0  0  0  0  0  0  0
  1  2  2  0  0  0  0
  1 20  1  0  0  0  0
  2 10  1  0  0  0  0
  2 12  1  0  0  0  0
  3  6  1  0  0  0  0
  3 12  2  0  0  0  0
  3 20  1  0  0  0  0
  4  7  1  0  0  0  0
  4 13  1  0  0  0  0
  4 17  2  0  0  0  0
  5  8  1  0  0  0  0
  5 13  1  0  0  0  0
  5 18  2  0  0  0  0
  6 16  1  0  0  0  0
  6 19  2  0  0  0  0
  7 14  1  0  0  0  0
  8 11  1  0  0  0  0
  8 14  1  0  0  0  0
  9 11  1  0  0  0  0
 10 14  1  0  0  0  0
 15 16  1  0  0  0  0
  1 21  1  0  0  0  0
  7 22  1  0  0  0  0
  7 23  1  0  0  0  0
  8 24  1  0  0  0  0
  9 25  1  0  0  0  0
  9 26  1  0  0  0  0
  9 27  1  0  0  0  0
 10 28  1  0  0  0  0
 10 29  1  0  0  0  0
 11 30  1  0  0  0  0
 11 31  1  0  0  0  0
 13 32  1  0  0  0  0
 15 33  1  0  0  0  0
 15 34  1  0  0  0  0
 16 35  1  0  0  0  0
M  END
> <FRED Chemgauss4 score>
-7.319443

$$$$
C19472821	P28835153
  -OEChem-05122015073D

 28 28  0     1  0  0  0  0  0999 V2000
   53.5296  156.7810   -5.8689 C   0  0  0  0  0  0  0  0  0  0  0  0
   55.4750  156.2188   -2.5385 C   0  0  0  0  0  0  0  0  0  0  0  0
   57.0697  156.6149   -5.9778 C   0  0  0  0  0  0  0  0  0  0  0  0
   55.8066  156.5181   -6.8309 C   0  0  0  0  0  0  0  0  0  0  0  0
   56.7452  157.0440   -4.5533 C   0  0  0  0  0  0  0  0  0  0  0  0
   55.0462  155.2150   -4.7600 C   0  0  0  0  0  0  0  0  0  0  0  0
   54.6631  155.7968   -6.1177 C   0  0  1  0  0  0  0  0  0  0  0  0
   55.6615  157.5562   -1.8634 C   0  0  0  0  0  0  0  0  0  0  0  0
   55.7541  156.1760   -3.9069 N   0  0  0  0  0  0  0  0  0  0  0  0
   52.2835  156.2002   -5.8575 N   0  0  0  0  0  0  0  0  0  0  0  0
   54.4117  158.2485   -1.9511 N   0  0  0  0  0  0  0  0  0  0  0  0
   53.7337  157.9778   -5.6808 O   0  0  0  0  0  0  0  0  0  0  0  0
   55.1003  155.2491   -1.8751 O   0  0  0  0  0  0  0  0  0  0  0  0
   57.5848  155.6467   -5.9668 H   0  0  0  0  0  0  0  0  0  0  0  0
   57.7605  157.3389   -6.4294 H   0  0  0  0  0  0  0  0  0  0  0  0
   55.4976  157.5253   -7.1387 H   0  0  0  0  0  0  0  0  0  0  0  0
   56.0475  155.9682   -7.7507 H   0  0  0  0  0  0  0  0  0  0  0  0
   57.6543  157.0217   -3.9255 H   0  0  0  0  0  0  0  0  0  0  0  0
   56.3990  158.0918   -4.5541 H   0  0  0  0  0  0  0  0  0  0  0  0
   54.1574  154.8130   -4.2619 H   0  0  0  0  0  0  0  0  0  0  0  0
   55.7324  154.3677   -4.9038 H   0  0  0  0  0  0  0  0  0  0  0  0
   54.2491  155.0264   -6.7449 H   0  0  0  0  0  0  0  0  0  0  0  0
   56.4469  158.0934   -2.3867 H   0  0  0  0  0  0  0  0  0  0  0  0
   55.9415  157.3780   -0.8294 H   0  0  0  0  0  0  0  0  0  0  0  0
   52.2111  155.1996   -6.0093 H   0  0  0  0  0  0  0  0  0  0  0  0
   51.4331  156.7322   -5.7033 H   0  0  0  0  0  0  0  0  0  0  0  0
   53.8316  158.1272   -2.7701 H   0  0  0  0  0  0  0  0  0  0  0  0
   54.2120  158.9993   -1.3043 H   0  0  0  0  0  0  0  0  0  0  0  0
  1  7  1  0  0  0  0
  1 10  1  0  0  0  0
  1 12  2  0  0  0  0
  2  8  1  0  0  0  0
  2  9  1  0  0  0  0
  2 13  2  0  0  0  0
  3  4  1  0  0  0  0
  3  5  1  0  0  0  0
  4  7  1  0  0  0  0
  5  9  1  0  0  0  0
  6  7  1  0  0  0  0
  6  9  1  0  0  0  0
  8 11  1  0  0  0  0
  3 14  1  0  0  0  0
  3 15  1  0  0  0  0
  4 16  1  0  0  0  0
  4 17  1  0  0  0  0
  5 18  1  0  0  0  0
  5 19  1  0  0  0  0
  6 20  1  0  0  0  0
  6 21  1  0  0  0  0
  7 22  1  0  0  0  0
  8 23  1  0  0  0  0
  8 24  1  0  0  0  0
 10 25  1  0  0  0  0
 10 26  1  0  0  0  0
 11 27  1  0  0  0  0
 11 28  1  0  0  0  0
M  END
> <FRED Chemgauss4 score>
-7.318462

$$$$
C91018745	P142410634
  -OEChem-05122015073D

 37 39  0     0  0  0  0  0  0999 V2000
   55.4676  153.2056   -6.6859 C   0  0  0  0  0  0  0  0  0  0  0  0
   55.0213  153.8508   -5.5339 C   0  0  0  0  0  0  0  0  0  0  0  0
   56.6137  153.6755   -7.3130 C   0  0  0  0  0  0  0  0  0  0  0  0
   56.7230  156.7326   -4.0710 C   0  0  0  0  0  0  0  0  0  0  0  0
   55.7624  154.9491   -5.0686 C   0  0  0  0  0  0  0  0  0  0  0  0
   55.6647  155.8544   -3.9790 C   0  0  0  0  0  0  0  0  0  0  0  0
   56.8922  155.3134   -5.7953 C   0  0  0  0  0  0  0  0  0  0  0  0
   59.8525  159.3057   -5.7601 C   0  0  0  0  0  0  0  0  0  0  0  0
   60.9270  162.2134   -7.1614 C   0  0  0  0  0  0  0  0  0  0  0  0
   60.5738  163.0530   -5.9677 C   0  0  0  0  0  0  0  0  0  0  0  0
   60.8487  161.5857   -5.7989 C   0  0  0  0  0  0  0  0  0  0  0  0
   54.6231  155.8622   -2.9324 C   0  0  0  0  0  0  0  0  0  0  0  0
   58.6076  158.5752   -5.2902 C   0  0  0  0  0  0  0  0  0  0  0  0
   58.6548  157.0848   -5.6115 C   0  0  0  0  0  0  0  0  0  0  0  0
   57.3656  154.7264   -6.9108 N   0  0  0  0  0  0  0  0  0  0  0  0
   57.4605  156.3955   -5.1763 N   0  0  0  0  0  0  0  0  0  0  0  0
   53.8813  157.1033   -2.8862 N   0  0  0  0  0  0  0  0  0  0  0  0
   59.7934  160.6588   -5.4604 N   0  0  0  0  0  0  0  0  0  0  0  0
   60.7833  158.7466   -6.3338 O   0  0  0  0  0  0  0  0  0  0  0  0
   54.9288  152.3525   -7.0840 H   0  0  0  0  0  0  0  0  0  0  0  0
   54.1291  153.5087   -5.0196 H   0  0  0  0  0  0  0  0  0  0  0  0
   56.9758  153.1843   -8.2123 H   0  0  0  0  0  0  0  0  0  0  0  0
   57.0115  157.5663   -3.4445 H   0  0  0  0  0  0  0  0  0  0  0  0
   60.1414  161.9991   -7.8756 H   0  0  0  0  0  0  0  0  0  0  0  0
   61.9083  162.3472   -7.5999 H   0  0  0  0  0  0  0  0  0  0  0  0
   61.3176  163.7511   -5.6040 H   0  0  0  0  0  0  0  0  0  0  0  0
   59.5515  163.4006   -5.8825 H   0  0  0  0  0  0  0  0  0  0  0  0
   61.7908  161.3182   -5.3324 H   0  0  0  0  0  0  0  0  0  0  0  0
   53.8846  155.0547   -3.0817 H   0  0  0  0  0  0  0  0  0  0  0  0
   55.0437  155.7075   -1.9232 H   0  0  0  0  0  0  0  0  0  0  0  0
   58.5065  158.7262   -4.2083 H   0  0  0  0  0  0  0  0  0  0  0  0
   57.7361  159.0385   -5.7690 H   0  0  0  0  0  0  0  0  0  0  0  0
   59.5140  156.6038   -5.1282 H   0  0  0  0  0  0  0  0  0  0  0  0
   58.7646  156.9165   -6.6898 H   0  0  0  0  0  0  0  0  0  0  0  0
   53.4616  157.3828   -2.0187 H   0  0  0  0  0  0  0  0  0  0  0  0
   53.6306  157.5482   -3.7501 H   0  0  0  0  0  0  0  0  0  0  0  0
   58.9711  161.0140   -4.9814 H   0  0  0  0  0  0  0  0  0  0  0  0
  1  2  1  0  0  0  0
  1  3  2  0  0  0  0
  2  5  2  0  0  0  0
  3 15  1  0  0  0  0
  4  6  2  0  0  0  0
  4 16  1  0  0  0  0
  5  6  1  0  0  0  0
  5  7  1  0  0  0  0
  6 12  1  0  0  0  0
  7 15  2  0  0  0  0
  7 16  1  0  0  0  0
  8 13  1  0  0  0  0
  8 18  1  0  0  0  0
  8 19  2  0  0  0  0
  9 10  1  0  0  0  0
  9 11  1  0  0  0  0
 10 11  1  0  0  0  0
 11 18  1  0  0  0  0
 12 17  1  0  0  0  0
 13 14  1  0  0  0  0
 14 16  1  0  0  0  0
  1 20  1  0  0  0  0
  2 21  1  0  0  0  0
  3 22  1  0  0  0  0
  4 23  1  0  0  0  0
  9 24  1  0  0  0  0
  9 25  1  0  0  0  0
 10 26  1  0  0  0  0
 10 27  1  0  0  0  0
 11 28  1  0  0  0  0
 12 29  1  0  0  0  0
 12 30  1  0  0  0  0
 13 31  1  0  0  0  0
 13 32  1  0  0  0  0
 14 33  1  0  0  0  0
 14 34  1  0  0  0  0
 17 35  1  0  0  0  0
 17 36  1  0  0  0  0
 18 37  1  0  0  0  0
M  END
> <FRED Chemgauss4 score>
-7.316177

$$$$
C93830096	P147036972
  -OEChem-05122015073D

 51 53  0     1  0  0  0  0  0999 V2000
   53.6924  156.5276   -3.2927 C   0  0  0  0  0  0  0  0  0  0  0  0
   56.5174  165.8461   -1.4823 C   0  0  0  0  0  0  0  0  0  0  0  0
   55.4834  165.8970   -2.6031 C   0  0  0  0  0  0  0  0  0  0  0  0
   54.7172  159.2464   -5.0785 C   0  0  0  0  0  0  0  0  0  0  0  0
   54.2060  157.8288   -5.3681 C   0  0  0  0  0  0  0  0  0  0  0  0
   57.3646  161.5556   -1.8058 C   0  0  0  0  0  0  0  0  0  0  0  0
   55.8333  157.7951   -3.5491 C   0  0  0  0  0  0  0  0  0  0  0  0
   57.1656  164.4745   -1.6007 C   0  0  0  0  0  0  0  0  0  0  0  0
   55.5960  164.5541   -3.3094 C   0  0  0  0  0  0  0  0  0  0  0  0
   56.7079  160.1927   -1.9918 C   0  0  0  0  0  0  0  0  0  0  0  0
   55.6475  161.5858   -3.5138 C   0  0  0  0  0  0  0  0  0  0  0  0
   55.2380  159.1985   -3.6452 C   0  0  1  0  0  0  0  0  0  0  0  0
   56.7044  162.4613   -2.8481 C   0  0  1  0  0  0  0  0  0  0  0  0
   54.7786  156.9341   -4.2537 C   0  0  1  0  0  0  0  0  0  0  0  0
   56.9446  154.6500   -6.2491 C   0  0  0  0  0  0  0  0  0  0  0  0
   56.3905  155.9290   -5.7201 C   0  0  0  0  0  0  0  0  0  0  0  0
   56.1312  163.6797   -2.2647 N   0  0  0  0  0  0  0  0  0  0  0  0
   56.2122  160.2439   -3.3675 N   0  0  2  0  0  0  0  0  0  0  0  0
   52.6689  155.8214   -3.8792 N   0  0  0  0  0  0  0  0  0  0  0  0
   55.3235  155.6821   -4.7598 N   0  0  0  0  0  0  0  0  0  0  0  0
   53.7453  156.7981   -2.0954 O   0  0  0  0  0  0  0  0  0  0  0  0
   57.2565  166.6484   -1.5754 H   0  0  0  0  0  0  0  0  0  0  0  0
   56.0189  165.9594   -0.5123 H   0  0  0  0  0  0  0  0  0  0  0  0
   54.4819  166.0308   -2.1778 H   0  0  0  0  0  0  0  0  0  0  0  0
   55.6706  166.7286   -3.2901 H   0  0  0  0  0  0  0  0  0  0  0  0
   55.5229  159.4870   -5.7843 H   0  0  0  0  0  0  0  0  0  0  0  0
   53.9324  159.9988   -5.2087 H   0  0  0  0  0  0  0  0  0  0  0  0
   53.1103  157.8121   -5.3934 H   0  0  0  0  0  0  0  0  0  0  0  0
   54.5482  157.5243   -6.3648 H   0  0  0  0  0  0  0  0  0  0  0  0
   57.2332  161.9113   -0.7776 H   0  0  0  0  0  0  0  0  0  0  0  0
   58.4433  161.4994   -1.9963 H   0  0  0  0  0  0  0  0  0  0  0  0
   56.7936  157.7480   -4.0805 H   0  0  0  0  0  0  0  0  0  0  0  0
   56.0095  157.4994   -2.5085 H   0  0  0  0  0  0  0  0  0  0  0  0
   58.0760  164.5466   -2.2098 H   0  0  0  0  0  0  0  0  0  0  0  0
   57.4325  164.0682   -0.6201 H   0  0  0  0  0  0  0  0  0  0  0  0
   54.6250  164.2096   -3.6789 H   0  0  0  0  0  0  0  0  0  0  0  0
   56.2842  164.6393   -4.1604 H   0  0  0  0  0  0  0  0  0  0  0  0
   57.4231  159.3780   -1.8421 H   0  0  0  0  0  0  0  0  0  0  0  0
   55.8895  160.0765   -1.2697 H   0  0  0  0  0  0  0  0  0  0  0  0
   54.6815  161.6676   -2.9974 H   0  0  0  0  0  0  0  0  0  0  0  0
   55.5011  161.8603   -4.5638 H   0  0  0  0  0  0  0  0  0  0  0  0
   54.4037  159.3011   -2.9466 H   0  0  0  0  0  0  0  0  0  0  0  0
   57.4587  162.7464   -3.5874 H   0  0  0  0  0  0  0  0  0  0  0  0
   57.3623  154.0408   -5.4402 H   0  0  0  0  0  0  0  0  0  0  0  0
   56.1712  154.0759   -6.7710 H   0  0  0  0  0  0  0  0  0  0  0  0
   57.7495  154.8612   -6.9633 H   0  0  0  0  0  0  0  0  0  0  0  0
   55.9752  156.5322   -6.5330 H   0  0  0  0  0  0  0  0  0  0  0  0
   57.1678  156.5082   -5.2130 H   0  0  0  0  0  0  0  0  0  0  0  0
   52.7158  155.6323   -4.8750 H   0  0  0  0  0  0  0  0  0  0  0  0
   51.8684  155.4817   -3.3561 H   0  0  0  0  0  0  0  0  0  0  0  0
   55.6926  155.1375   -3.9808 H   0  0  0  0  0  0  0  0  0  0  0  0
  1 14  1  0  0  0  0
  1 19  1  0  0  0  0
  1 21  2  0  0  0  0
  2  3  1  0  0  0  0
  2  8  1  0  0  0  0
  3  9  1  0  0  0  0
  4  5  1  0  0  0  0
  4 12  1  0  0  0  0
  5 14  1  0  0  0  0
  6 10  1  0  0  0  0
  6 13  1  0  0  0  0
  7 12  1  0  0  0  0
  7 14  1  0  0  0  0
  8 17  1  0  0  0  0
  9 17  1  0  0  0  0
 10 18  1  0  0  0  0
 11 13  1  0  0  0  0
 11 18  1  0  0  0  0
 12 18  1  0  0  0  0
 13 17  1  0  0  0  0
 14 20  1  0  0  0  0
 15 16  1  0  0  0  0
 16 20  1  0  0  0  0
  2 22  1  0  0  0  0
  2 23  1  0  0  0  0
  3 24  1  0  0  0  0
  3 25  1  0  0  0  0
  4 26  1  0  0  0  0
  4 27  1  0  0  0  0
  5 28  1  0  0  0  0
  5 29  1  0  0  0  0
  6 30  1  0  0  0  0
  6 31  1  0  0  0  0
  7 32  1  0  0  0  0
  7 33  1  0  0  0  0
  8 34  1  0  0  0  0
  8 35  1  0  0  0  0
  9 36  1  0  0  0  0
  9 37  1  0  0  0  0
 10 38  1  0  0  0  0
 10 39  1  0  0  0  0
 11 40  1  0  0  0  0
 11 41  1  0  0  0  0
 12 42  1  0  0  0  0
 13 43  1  0  0  0  0
 15 44  1  0  0  0  0
 15 45  1  0  0  0  0
 15 46  1  0  0  0  0
 16 47  1  0  0  0  0
 16 48  1  0  0  0  0
 19 49  1  0  0  0  0
 19 50  1  0  0  0  0
 20 51  1  0  0  0  0
M  END
> <FRED Chemgauss4 score>
-7.310886

$$$$
C86695381	P135727229
  -OEChem-05122015073D

 27 28  0     0  0  0  0  0  0999 V2000
   58.5413  156.9731   -6.0974 C   0  0  0  0  0  0  0  0  0  0  0  0
   56.3441  156.0557   -5.6883 C   0  0  0  0  0  0  0  0  0  0  0  0
   58.0964  154.6463   -6.5718 C   0  0  0  0  0  0  0  0  0  0  0  0
   56.1766  158.3227   -1.6304 C   0  0  0  0  0  0  0  0  0  0  0  0
   57.0615  158.3735   -2.6816 C   0  0  0  0  0  0  0  0  0  0  0  0
   57.2249  157.1371   -5.6666 C   0  0  0  0  0  0  0  0  0  0  0  0
   58.9771  155.7278   -6.5500 C   0  0  0  0  0  0  0  0  0  0  0  0
   56.7799  154.8103   -6.1409 C   0  0  0  0  0  0  0  0  0  0  0  0
   54.9730  158.3793   -3.3850 C   0  0  0  0  0  0  0  0  0  0  0  0
   56.7596  158.4688   -5.1821 C   0  0  0  0  0  0  0  0  0  0  0  0
   53.8439  158.4053   -4.3371 C   0  0  0  0  0  0  0  0  0  0  0  0
   54.8781  158.3263   -2.0750 N   0  0  0  0  0  0  0  0  0  0  0  0
   56.2757  158.4089   -3.7989 N   0  0  0  0  0  0  0  0  0  0  0  0
   53.6167  159.7165   -4.9039 N   0  0  0  0  0  0  0  0  0  0  0  0
   60.2411  155.5703   -6.9638 F   0  0  0  0  0  0  0  0  0  0  0  0
   55.5873  153.3443   -6.1711 Br  0  0  0  0  0  0  0  0  0  0  0  0
   59.2347  157.8100   -6.0837 H   0  0  0  0  0  0  0  0  0  0  0  0
   55.3189  156.1915   -5.3515 H   0  0  0  0  0  0  0  0  0  0  0  0
   58.4520  153.6827   -6.9273 H   0  0  0  0  0  0  0  0  0  0  0  0
   56.4085  158.2836   -0.5761 H   0  0  0  0  0  0  0  0  0  0  0  0
   58.1414  158.3868   -2.7283 H   0  0  0  0  0  0  0  0  0  0  0  0
   57.5623  159.2222   -5.2222 H   0  0  0  0  0  0  0  0  0  0  0  0
   55.9424  158.8680   -5.8037 H   0  0  0  0  0  0  0  0  0  0  0  0
   54.0053  157.7151   -5.1839 H   0  0  0  0  0  0  0  0  0  0  0  0
   52.8945  158.0946   -3.8670 H   0  0  0  0  0  0  0  0  0  0  0  0
   52.6937  159.9532   -5.2189 H   0  0  0  0  0  0  0  0  0  0  0  0
   54.4097  160.2775   -5.1562 H   0  0  0  0  0  0  0  0  0  0  0  0
  1  6  1  0  0  0  0
  1  7  2  0  0  0  0
  2  6  2  0  0  0  0
  2  8  1  0  0  0  0
  3  7  1  0  0  0  0
  3  8  2  0  0  0  0
  4  5  2  0  0  0  0
  4 12  1  0  0  0  0
  5 13  1  0  0  0  0
  6 10  1  0  0  0  0
  7 15  1  0  0  0  0
  8 16  1  0  0  0  0
  9 11  1  0  0  0  0
  9 12  2  0  0  0  0
  9 13  1  0  0  0  0
 10 13  1  0  0  0  0
 11 14  1  0  0  0  0
  1 17  1  0  0  0  0
  2 18  1  0  0  0  0
  3 19  1  0  0  0  0
  4 20  1  0  0  0  0
  5 21  1  0  0  0  0
 10 22  1  0  0  0  0
 10 23  1  0  0  0  0
 11 24  1  0  0  0  0
 11 25  1  0  0  0  0
 14 26  1  0  0  0  0
 14 27  1  0  0  0  0
M  END
> <FRED Chemgauss4 score>
-7.301097

$$$$
C40319776	P61205905
  -OEChem-05122015073D

 40 41  0     1  0  0  0  0  0999 V2000
   56.2627  157.5971   -4.8261 C   0  0  0  0  0  0  0  0  0  0  0  0
   53.9252  158.1374   -4.5412 C   0  0  0  0  0  0  0  0  0  0  0  0
   54.6949  157.1575   -6.6111 C   0  0  0  0  0  0  0  0  0  0  0  0
   55.2270  158.1039   -4.0412 C   0  0  0  0  0  0  0  0  0  0  0  0
   55.9967  157.1240   -6.1111 C   0  0  0  0  0  0  0  0  0  0  0  0
   53.6592  157.6643   -5.8262 C   0  0  0  0  0  0  0  0  0  0  0  0
   55.5075  158.6029   -2.6868 C   0  0  0  0  0  0  0  0  0  0  0  0
   56.7569  159.9518   -0.1489 C   0  0  0  0  0  0  0  0  0  0  0  0
   57.5862  159.8554   -3.4324 C   0  0  0  0  0  0  0  0  0  0  0  0
   58.3889  161.0199   -2.8722 C   0  0  0  0  0  0  0  0  0  0  0  0
   58.8752  158.9616   -1.0586 C   0  0  0  0  0  0  0  0  0  0  0  0
   57.3503  158.9444   -1.0938 C   0  0  2  0  0  0  0  0  0  0  0  0
   57.6774  161.8372    2.1883 C   0  0  0  0  0  0  0  0  0  0  0  0
   56.7591  160.6361    2.1129 C   0  0  0  0  0  0  0  0  0  0  0  0
   56.7725  159.1557   -2.4241 N   0  0  0  0  0  0  0  0  0  0  0  0
   57.0442  156.6117   -6.9050 N   0  0  0  0  0  0  0  0  0  0  0  0
   52.3426  157.6981   -6.3318 N   0  0  0  0  0  0  0  0  0  0  0  0
   54.5972  158.4903   -1.8660 O   0  0  0  0  0  0  0  0  0  0  0  0
   55.9606  160.8186   -0.4831 O   0  0  0  0  0  0  0  0  0  0  0  0
   57.2440  159.7410    1.1070 O   0  0  0  0  0  0  0  0  0  0  0  0
   59.6306  160.5100   -1.6481 S   0  0  0  0  0  0  0  0  0  0  0  0
   57.2780  157.5711   -4.4364 H   0  0  0  0  0  0  0  0  0  0  0  0
   53.1173  158.5327   -3.9291 H   0  0  0  0  0  0  0  0  0  0  0  0
   54.4875  156.7885   -7.6134 H   0  0  0  0  0  0  0  0  0  0  0  0
   56.9141  160.1848   -4.2393 H   0  0  0  0  0  0  0  0  0  0  0  0
   58.2846  159.1451   -3.8971 H   0  0  0  0  0  0  0  0  0  0  0  0
   58.8990  161.5706   -3.6848 H   0  0  0  0  0  0  0  0  0  0  0  0
   57.7076  161.7433   -2.3886 H   0  0  0  0  0  0  0  0  0  0  0  0
   59.2388  158.7808   -0.0396 H   0  0  0  0  0  0  0  0  0  0  0  0
   59.2683  158.1521   -1.6870 H   0  0  0  0  0  0  0  0  0  0  0  0
   57.0380  157.9693   -0.6942 H   0  0  0  0  0  0  0  0  0  0  0  0
   58.6948  161.5346    2.4516 H   0  0  0  0  0  0  0  0  0  0  0  0
   57.7025  162.3648    1.2292 H   0  0  0  0  0  0  0  0  0  0  0  0
   57.3170  162.5521    2.9355 H   0  0  0  0  0  0  0  0  0  0  0  0
   55.7434  160.9456    1.8492 H   0  0  0  0  0  0  0  0  0  0  0  0
   56.7359  160.1096    3.0717 H   0  0  0  0  0  0  0  0  0  0  0  0
   57.9797  156.6368   -6.5532 H   0  0  0  0  0  0  0  0  0  0  0  0
   56.8483  156.3196   -7.8410 H   0  0  0  0  0  0  0  0  0  0  0  0
   51.6020  158.0197   -5.7422 H   0  0  0  0  0  0  0  0  0  0  0  0
   52.1577  157.3127   -7.2357 H   0  0  0  0  0  0  0  0  0  0  0  0
  1  4  1  0  0  0  0
  1  5  2  0  0  0  0
  2  4  2  0  0  0  0
  2  6  1  0  0  0  0
  3  5  1  0  0  0  0
  3  6  2  0  0  0  0
  4  7  1  0  0  0  0
  5 16  1  0  0  0  0
  6 17  1  0  0  0  0
  7 15  1  0  0  0  0
  7 18  2  0  0  0  0
  8 12  1  0  0  0  0
  8 19  2  0  0  0  0
  8 20  1  0  0  0  0
  9 10  1  0  0  0  0
  9 15  1  0  0  0  0
 10 21  1  0  0  0  0
 11 12  1  0  0  0  0
 11 21  1  0  0  0  0
 12 15  1  0  0  0  0
 13 14  1  0  0  0  0
 14 20  1  0  0  0  0
  1 22  1  0  0  0  0
  2 23  1  0  0  0  0
  3 24  1  0  0  0  0
  9 25  1  0  0  0  0
  9 26  1  0  0  0  0
 10 27  1  0  0  0  0
 10 28  1  0  0  0  0
 11 29  1  0  0  0  0
 11 30  1  0  0  0  0
 12 31  1  0  0  0  0
 13 32  1  0  0  0  0
 13 33  1  0  0  0  0
 13 34  1  0  0  0  0
 14 35  1  0  0  0  0
 14 36  1  0  0  0  0
 16 37  1  0  0  0  0
 16 38  1  0  0  0  0
 17 39  1  0  0  0  0
 17 40  1  0  0  0  0
M  END
> <FRED Chemgauss4 score>
-7.295514

$$$$
C94208176	P147647080
  -OEChem-05122015073D

 27 28  0     0  0  0  0  0  0999 V2000
   54.9398  155.5184   -5.2058 C   0  0  0  0  0  0  0  0  0  0  0  0
   58.5745  161.4057   -0.4074 C   0  0  0  0  0  0  0  0  0  0  0  0
   58.7640  161.3654   -1.7887 C   0  0  0  0  0  0  0  0  0  0  0  0
   55.6353  156.2645   -4.2609 C   0  0  0  0  0  0  0  0  0  0  0  0
   56.8779  159.6954   -0.5903 C   0  0  0  0  0  0  0  0  0  0  0  0
   52.9418  155.9282   -3.9825 C   0  0  0  0  0  0  0  0  0  0  0  0
   57.0674  159.6551   -1.9717 C   0  0  0  0  0  0  0  0  0  0  0  0
   53.5671  155.3423   -5.0713 C   0  0  0  0  0  0  0  0  0  0  0  0
   57.6314  160.5706    0.1918 C   0  0  0  0  0  0  0  0  0  0  0  0
   58.0105  160.4901   -2.5709 C   0  0  0  0  0  0  0  0  0  0  0  0
   54.9174  156.8092   -3.2085 C   0  0  0  0  0  0  0  0  0  0  0  0
   55.6357  157.6212   -2.1698 C   0  0  0  0  0  0  0  0  0  0  0  0
   53.5838  156.6597   -3.0442 N   0  0  0  0  0  0  0  0  0  0  0  0
   56.2894  158.7576   -2.7375 N   0  0  0  0  0  0  0  0  0  0  0  0
   52.8635  154.6193   -5.9773 O   0  0  0  0  0  0  0  0  0  0  0  0
   57.3983  160.6208    1.8962 Cl  0  0  0  0  0  0  0  0  0  0  0  0
   58.2777  160.4720   -4.2773 Cl  0  0  0  0  0  0  0  0  0  0  0  0
   55.4711  155.0781   -6.0451 H   0  0  0  0  0  0  0  0  0  0  0  0
   59.1688  162.0926    0.1896 H   0  0  0  0  0  0  0  0  0  0  0  0
   59.5032  162.0225   -2.2400 H   0  0  0  0  0  0  0  0  0  0  0  0
   56.7062  156.4097   -4.3541 H   0  0  0  0  0  0  0  0  0  0  0  0
   56.1416  159.0432   -0.1250 H   0  0  0  0  0  0  0  0  0  0  0  0
   51.8724  155.8244   -3.8270 H   0  0  0  0  0  0  0  0  0  0  0  0
   54.9351  157.9806   -1.4082 H   0  0  0  0  0  0  0  0  0  0  0  0
   56.3940  157.0205   -1.6565 H   0  0  0  0  0  0  0  0  0  0  0  0
   56.2113  158.9500   -3.7170 H   0  0  0  0  0  0  0  0  0  0  0  0
   53.4510  154.2800   -6.6737 H   0  0  0  0  0  0  0  0  0  0  0  0
  1  4  2  0  0  0  0
  1  8  1  0  0  0  0
  2  3  1  0  0  0  0
  2  9  2  0  0  0  0
  3 10  2  0  0  0  0
  4 11  1  0  0  0  0
  5  7  2  0  0  0  0
  5  9  1  0  0  0  0
  6  8  2  0  0  0  0
  6 13  1  0  0  0  0
  7 10  1  0  0  0  0
  7 14  1  0  0  0  0
  8 15  1  0  0  0  0
  9 16  1  0  0  0  0
 10 17  1  0  0  0  0
 11 12  1  0  0  0  0
 11 13  2  0  0  0  0
 12 14  1  0  0  0  0
  1 18  1  0  0  0  0
  2 19  1  0  0  0  0
  3 20  1  0  0  0  0
  4 21  1  0  0  0  0
  5 22  1  0  0  0  0
  6 23  1  0  0  0  0
 12 24  1  0  0  0  0
 12 25  1  0  0  0  0
 14 26  1  0  0  0  0
 15 27  1  0  0  0  0
M  END
> <FRED Chemgauss4 score>
-7.291050

$$$$
C08382902	P52268118
  -OEChem-05122015073D

 23 24  0     0  0  0  0  0  0999 V2000
   56.7528  154.8839   -6.7858 C   0  0  0  0  0  0  0  0  0  0  0  0
   54.6151  154.7152   -5.7043 C   0  0  0  0  0  0  0  0  0  0  0  0
   58.7359  155.5612   -7.3928 C   0  0  0  0  0  0  0  0  0  0  0  0
   53.6749  155.7406   -4.0238 C   0  0  0  0  0  0  0  0  0  0  0  0
   55.6318  153.9498   -6.4750 C   0  0  0  0  0  0  0  0  0  0  0  0
   56.6647  156.1809   -6.6861 N   0  0  0  0  0  0  0  0  0  0  0  0
   53.4840  155.1268   -6.2055 N   0  0  0  0  0  0  0  0  0  0  0  0
   57.9027  156.6362   -7.0627 N   0  0  0  0  0  0  0  0  0  0  0  0
   52.8681  155.7776   -5.1667 N   0  0  0  0  0  0  0  0  0  0  0  0
   57.9569  154.4461   -7.2013 N   0  0  0  0  0  0  0  0  0  0  0  0
   54.7947  155.0458   -4.4110 N   0  0  0  0  0  0  0  0  0  0  0  0
   58.3225  153.1424   -7.3935 N   0  0  0  0  0  0  0  0  0  0  0  0
   55.8849  154.7447   -3.6421 N   0  0  0  0  0  0  0  0  0  0  0  0
   60.3112  155.6920   -7.8972 S   0  0  0  0  0  0  0  0  0  0  0  0
   53.2879  156.4149   -2.5579 S   0  0  0  0  0  0  0  0  0  0  0  0
   55.9929  153.1131   -5.8763 H   0  0  0  0  0  0  0  0  0  0  0  0
   55.1792  153.5825   -7.3971 H   0  0  0  0  0  0  0  0  0  0  0  0
   58.1077  157.6271   -7.0748 H   0  0  0  0  0  0  0  0  0  0  0  0
   51.9570  156.2005   -5.2889 H   0  0  0  0  0  0  0  0  0  0  0  0
   57.8425  152.5034   -6.7316 H   0  0  0  0  0  0  0  0  0  0  0  0
   59.3281  152.9899   -7.1895 H   0  0  0  0  0  0  0  0  0  0  0  0
   56.3124  153.8388   -3.9132 H   0  0  0  0  0  0  0  0  0  0  0  0
   55.6274  154.6017   -2.6474 H   0  0  0  0  0  0  0  0  0  0  0  0
  1  5  1  0  0  0  0
  1  6  2  0  0  0  0
  1 10  1  0  0  0  0
  2  5  1  0  0  0  0
  2  7  2  0  0  0  0
  2 11  1  0  0  0  0
  3  8  1  0  0  0  0
  3 10  1  0  0  0  0
  3 14  2  0  0  0  0
  4  9  1  0  0  0  0
  4 11  1  0  0  0  0
  4 15  2  0  0  0  0
  6  8  1  0  0  0  0
  7  9  1  0  0  0  0
 10 12  1  0  0  0  0
 11 13  1  0  0  0  0
  5 16  1  0  0  0  0
  5 17  1  0  0  0  0
  8 18  1  0  0  0  0
  9 19  1  0  0  0  0
 12 20  1  0  0  0  0
 12 21  1  0  0  0  0
 13 22  1  0  0  0  0
 13 23  1  0  0  0  0
M  END
> <FRED Chemgauss4 score>
-7.286091

$$$$
C86437548	P135333756
  -OEChem-05122015073D

 36 38  0     1  0  0  0  0  0999 V2000
   55.0230  155.2266   -5.9413 C   0  0  0  0  0  0  0  0  0  0  0  0
   56.0041  156.1465   -5.8851 C   0  0  0  0  0  0  0  0  0  0  0  0
   53.7082  155.7860   -5.5532 C   0  0  0  0  0  0  0  0  0  0  0  0
   55.2018  153.8322   -6.3448 C   0  0  0  0  0  0  0  0  0  0  0  0
   56.2543  157.8218   -4.1111 C   0  0  0  0  0  0  0  0  0  0  0  0
   54.0146  151.3775   -8.3854 C   0  0  0  0  0  0  0  0  0  0  0  0
   54.4832  152.0410   -9.6462 C   0  0  0  0  0  0  0  0  0  0  0  0
   58.4652  160.3215   -2.7113 C   0  0  0  0  0  0  0  0  0  0  0  0
   59.6091  159.4874   -3.2065 C   0  0  0  0  0  0  0  0  0  0  0  0
   55.6168  157.5256   -5.4300 C   0  0  2  0  0  0  0  0  0  0  0  0
   55.1669  152.3434   -8.3408 C   0  0  0  0  0  0  0  0  0  0  0  0
   58.2442  158.8737   -3.0545 C   0  0  0  0  0  0  0  0  0  0  0  0
   57.4430  155.9498   -6.2661 C   0  0  0  0  0  0  0  0  0  0  0  0
   52.5912  155.1551   -5.4737 N   0  0  0  0  0  0  0  0  0  0  0  0
   55.0368  153.6352   -7.7059 N   0  0  0  0  0  0  0  0  0  0  0  0
   57.4609  158.4885   -4.2065 N   0  0  0  0  0  0  0  0  0  0  0  0
   55.4731  152.9600   -5.5178 O   0  0  0  0  0  0  0  0  0  0  0  0
   55.6947  157.4739   -3.0779 O   0  0  0  0  0  0  0  0  0  0  0  0
   53.8246  157.4955   -5.2010 S   0  0  0  0  0  0  0  0  0  0  0  0
   53.0621  151.6908   -7.9757 H   0  0  0  0  0  0  0  0  0  0  0  0
   54.2340  150.3246   -8.2576 H   0  0  0  0  0  0  0  0  0  0  0  0
   55.0182  151.4349  -10.3668 H   0  0  0  0  0  0  0  0  0  0  0  0
   53.8453  152.7996  -10.0828 H   0  0  0  0  0  0  0  0  0  0  0  0
   58.4675  160.6101   -1.6672 H   0  0  0  0  0  0  0  0  0  0  0  0
   58.0564  161.0668   -3.3824 H   0  0  0  0  0  0  0  0  0  0  0  0
   59.9701  159.6712   -4.2109 H   0  0  0  0  0  0  0  0  0  0  0  0
   60.3792  159.2162   -2.4949 H   0  0  0  0  0  0  0  0  0  0  0  0
   55.8910  158.2907   -6.1614 H   0  0  0  0  0  0  0  0  0  0  0  0
   56.1537  151.9163   -8.1985 H   0  0  0  0  0  0  0  0  0  0  0  0
   58.1074  158.1923   -2.2218 H   0  0  0  0  0  0  0  0  0  0  0  0
   57.5744  156.1904   -7.3181 H   0  0  0  0  0  0  0  0  0  0  0  0
   57.7260  154.9147   -6.0894 H   0  0  0  0  0  0  0  0  0  0  0  0
   58.0695  156.6006   -5.6607 H   0  0  0  0  0  0  0  0  0  0  0  0
   51.8518  155.8036   -5.1799 H   0  0  0  0  0  0  0  0  0  0  0  0
   54.8134  154.4385   -8.2866 H   0  0  0  0  0  0  0  0  0  0  0  0
   57.8142  158.7189   -5.1303 H   0  0  0  0  0  0  0  0  0  0  0  0
  1  2  2  0  0  0  0
  1  3  1  0  0  0  0
  1  4  1  0  0  0  0
  2 10  1  0  0  0  0
  2 13  1  0  0  0  0
  3 14  2  0  0  0  0
  3 19  1  0  0  0  0
  4 15  1  0  0  0  0
  4 17  2  0  0  0  0
  5 10  1  0  0  0  0
  5 16  1  0  0  0  0
  5 18  2  0  0  0  0
  6  7  1  0  0  0  0
  6 11  1  0  0  0  0
  7 11  1  0  0  0  0
  8  9  1  0  0  0  0
  8 12  1  0  0  0  0
  9 12  1  0  0  0  0
 10 19  1  0  0  0  0
 11 15  1  0  0  0  0
 12 16  1  0  0  0  0
  6 20  1  0  0  0  0
  6 21  1  0  0  0  0
  7 22  1  0  0  0  0
  7 23  1  0  0  0  0
  8 24  1  0  0  0  0
  8 25  1  0  0  0  0
  9 26  1  0  0  0  0
  9 27  1  0  0  0  0
 10 28  1  0  0  0  0
 11 29  1  0  0  0  0
 12 30  1  0  0  0  0
 13 31  1  0  0  0  0
 13 32  1  0  0  0  0
 13 33  1  0  0  0  0
 14 34  1  0  0  0  0
 15 35  1  0  0  0  0
 16 36  1  0  0  0  0
M  END
> <FRED Chemgauss4 score>
-7.277787

$$$$
C84405529	P132100048
  -OEChem-05122015073D

 27 27  0     1  0  0  0  0  0999 V2000
   59.7538  157.0134   -8.6449 C   0  0  0  0  0  0  0  0  0  0  0  0
   53.8389  156.0633   -3.2381 C   0  0  0  0  0  0  0  0  0  0  0  0
   54.0147  156.8701   -5.6072 C   0  0  0  0  0  0  0  0  0  0  0  0
   55.2828  155.6234   -3.2861 C   0  0  0  0  0  0  0  0  0  0  0  0
   55.7053  155.2565   -4.6970 C   0  0  0  0  0  0  0  0  0  0  0  0
   55.4717  156.4424   -5.6186 C   0  0  1  0  0  0  0  0  0  0  0  0
   59.3244  157.6626   -7.3987 C   0  0  0  0  0  0  0  0  0  0  0  0
   57.8030  157.6024   -7.2451 C   0  0  0  0  0  0  0  0  0  0  0  0
   57.2794  156.1734   -7.1459 C   0  0  0  0  0  0  0  0  0  0  0  0
   60.0948  156.5009   -9.6285 N   0  0  0  0  0  0  0  0  0  0  0  0
   53.3512  156.6533   -4.4001 N   0  0  0  0  0  0  0  0  0  0  0  0
   55.8356  156.1223   -6.9735 N   0  0  0  0  0  0  0  0  0  0  0  0
   53.1667  155.9477   -2.2136 O   0  0  0  0  0  0  0  0  0  0  0  0
   53.4785  157.4342   -6.5608 O   0  0  0  0  0  0  0  0  0  0  0  0
   55.9002  156.4385   -2.8925 H   0  0  0  0  0  0  0  0  0  0  0  0
   55.4036  154.7555   -2.6288 H   0  0  0  0  0  0  0  0  0  0  0  0
   56.7629  154.9670   -4.6994 H   0  0  0  0  0  0  0  0  0  0  0  0
   55.1271  154.3857   -5.0344 H   0  0  0  0  0  0  0  0  0  0  0  0
   56.0620  157.3080   -5.2783 H   0  0  0  0  0  0  0  0  0  0  0  0
   59.8109  157.1694   -6.5496 H   0  0  0  0  0  0  0  0  0  0  0  0
   59.6568  158.7071   -7.3990 H   0  0  0  0  0  0  0  0  0  0  0  0
   57.3244  158.1156   -8.0893 H   0  0  0  0  0  0  0  0  0  0  0  0
   57.5085  158.1458   -6.3381 H   0  0  0  0  0  0  0  0  0  0  0  0
   57.5316  155.5946   -8.0399 H   0  0  0  0  0  0  0  0  0  0  0  0
   57.7225  155.6719   -6.2796 H   0  0  0  0  0  0  0  0  0  0  0  0
   52.3823  156.9590   -4.3677 H   0  0  0  0  0  0  0  0  0  0  0  0
   55.5012  155.1861   -7.1935 H   0  0  0  0  0  0  0  0  0  0  0  0
  1  7  1  0  0  0  0
  1 10  3  0  0  0  0
  2  4  1  0  0  0  0
  2 11  1  0  0  0  0
  2 13  2  0  0  0  0
  3  6  1  0  0  0  0
  3 11  1  0  0  0  0
  3 14  2  0  0  0  0
  4  5  1  0  0  0  0
  5  6  1  0  0  0  0
  6 12  1  0  0  0  0
  7  8  1  0  0  0  0
  8  9  1  0  0  0  0
  9 12  1  0  0  0  0
  4 15  1  0  0  0  0
  4 16  1  0  0  0  0
  5 17  1  0  0  0  0
  5 18  1  0  0  0  0
  6 19  1  0  0  0  0
  7 20  1  0  0  0  0
  7 21  1  0  0  0  0
  8 22  1  0  0  0  0
  8 23  1  0  0  0  0
  9 24  1  0  0  0  0
  9 25  1  0  0  0  0
 11 26  1  0  0  0  0
 12 27  1  0  0  0  0
M  END
> <FRED Chemgauss4 score>
-7.274050

$$$$
C92207445	P144379857
  -OEChem-05122015073D

 33 33  0     1  0  0  0  0  0999 V2000
   59.1455  157.4094   -5.8347 C   0  0  0  0  0  0  0  0  0  0  0  0
   59.4941  158.5909   -6.3538 C   0  0  0  0  0  0  0  0  0  0  0  0
   56.8203  156.9832   -5.3199 C   0  0  0  0  0  0  0  0  0  0  0  0
   53.9137  156.4580   -3.8871 C   0  0  0  0  0  0  0  0  0  0  0  0
   55.4503  154.0282   -6.6853 C   0  0  0  0  0  0  0  0  0  0  0  0
   57.5739  157.8706   -7.5511 C   0  0  0  0  0  0  0  0  0  0  0  0
   57.8585  156.9090   -6.3949 C   0  0  1  0  0  0  0  0  0  0  0  0
   58.4890  159.0847   -7.3400 C   0  0  1  0  0  0  0  0  0  0  0  0
   55.0884  155.5637   -4.2102 C   0  0  0  0  0  0  0  0  0  0  0  0
   55.2915  155.5311   -6.6672 C   0  0  0  0  0  0  0  0  0  0  0  0
   52.7594  156.0574   -4.5251 N   0  0  0  0  0  0  0  0  0  0  0  0
   54.4831  153.4085   -7.4470 N   0  0  0  0  0  0  0  0  0  0  0  0
   57.7726  160.2544   -6.8418 N   0  0  0  0  0  0  0  0  0  0  0  0
   55.7746  156.0624   -5.3952 N   0  0  0  0  0  0  0  0  0  0  0  0
   56.9308  157.8352   -4.4342 O   0  0  0  0  0  0  0  0  0  0  0  0
   53.9680  157.4065   -3.1091 O   0  0  0  0  0  0  0  0  0  0  0  0
   56.3633  153.4287   -6.1240 O   0  0  0  0  0  0  0  0  0  0  0  0
   59.7270  156.8813   -5.0920 H   0  0  0  0  0  0  0  0  0  0  0  0
   60.3861  159.1348   -6.0766 H   0  0  0  0  0  0  0  0  0  0  0  0
   57.8436  157.3848   -8.4989 H   0  0  0  0  0  0  0  0  0  0  0  0
   56.5145  158.1415   -7.6342 H   0  0  0  0  0  0  0  0  0  0  0  0
   57.9399  155.8748   -6.7418 H   0  0  0  0  0  0  0  0  0  0  0  0
   58.9849  159.3489   -8.2803 H   0  0  0  0  0  0  0  0  0  0  0  0
   54.7567  154.5423   -4.4157 H   0  0  0  0  0  0  0  0  0  0  0  0
   55.7913  155.5665   -3.3728 H   0  0  0  0  0  0  0  0  0  0  0  0
   54.2410  155.8141   -6.7753 H   0  0  0  0  0  0  0  0  0  0  0  0
   55.8817  155.9709   -7.4757 H   0  0  0  0  0  0  0  0  0  0  0  0
   52.7546  155.2447   -5.1325 H   0  0  0  0  0  0  0  0  0  0  0  0
   51.8785  156.5495   -4.4152 H   0  0  0  0  0  0  0  0  0  0  0  0
   53.7679  153.9491   -7.9221 H   0  0  0  0  0  0  0  0  0  0  0  0
   54.4464  152.4010   -7.5646 H   0  0  0  0  0  0  0  0  0  0  0  0
   56.8629  160.4391   -7.2067 H   0  0  0  0  0  0  0  0  0  0  0  0
   58.2849  160.9316   -6.3184 H   0  0  0  0  0  0  0  0  0  0  0  0
  1  2  2  0  0  0  0
  1  7  1  0  0  0  0
  2  8  1  0  0  0  0
  3  7  1  0  0  0  0
  3 14  1  0  0  0  0
  3 15  2  0  0  0  0
  4  9  1  0  0  0  0
  4 11  1  0  0  0  0
  4 16  2  0  0  0  0
  5 10  1  0  0  0  0
  5 12  1  0  0  0  0
  5 17  2  0  0  0  0
  6  7  1  0  0  0  0
  6  8  1  0  0  0  0
  8 13  1  0  0  0  0
  9 14  1  0  0  0  0
 10 14  1  0  0  0  0
  1 18  1  0  0  0  0
  2 19  1  0  0  0  0
  6 20  1  0  0  0  0
  6 21  1  0  0  0  0
  7 22  1  0  0  0  0
  8 23  1  0  0  0  0
  9 24  1  0  0  0  0
  9 25  1  0  0  0  0
 10 26  1  0  0  0  0
 10 27  1  0  0  0  0
 11 28  1  0  0  0  0
 11 29  1  0  0  0  0
 12 30  1  0  0  0  0
 12 31  1  0  0  0  0
 13 32  1  0  0  0  0
 13 33  1  0  0  0  0
M  END
> <FRED Chemgauss4 score>
-7.269869

$$$$
C94112850	P147484958
  -OEChem-05122015073D

 40 42  0     1  0  0  0  0  0999 V2000
   59.9892  160.9209   -2.1487 C   0  0  0  0  0  0  0  0  0  0  0  0
   59.3083  160.7499   -0.9458 C   0  0  0  0  0  0  0  0  0  0  0  0
   55.1360  156.2201   -3.9100 C   0  0  0  0  0  0  0  0  0  0  0  0
   56.5667  157.7121   -5.1607 C   0  0  0  0  0  0  0  0  0  0  0  0
   55.3458  155.2216   -4.8610 C   0  0  0  0  0  0  0  0  0  0  0  0
   56.7766  156.7135   -6.1117 C   0  0  0  0  0  0  0  0  0  0  0  0
   59.5042  160.2794   -3.2882 C   0  0  0  0  0  0  0  0  0  0  0  0
   58.1759  159.9608   -0.9494 C   0  0  0  0  0  0  0  0  0  0  0  0
   55.7464  157.4654   -4.0598 C   0  0  0  0  0  0  0  0  0  0  0  0
   56.1661  155.4683   -5.9619 C   0  0  0  0  0  0  0  0  0  0  0  0
   57.7686  159.3640   -2.1389 C   0  0  0  0  0  0  0  0  0  0  0  0
   57.2889  159.5779    0.1874 C   0  0  0  0  0  0  0  0  0  0  0  0
   56.0492  159.0710   -0.5676 C   0  0  0  0  0  0  0  0  0  0  0  0
   56.5577  158.4942   -1.9059 C   0  0  1  0  0  0  0  0  0  0  0  0
   55.5683  159.9539   -3.6953 C   0  0  0  0  0  0  0  0  0  0  0  0
   55.7181  153.2436   -6.6732 C   0  0  0  0  0  0  0  0  0  0  0  0
   55.5151  158.5690   -3.0084 C   0  0  1  0  0  0  0  0  0  0  0  0
   58.4043  159.4891   -3.3164 N   0  0  0  0  0  0  0  0  0  0  0  0
   54.1905  158.4509   -2.3959 N   0  0  0  0  0  0  0  0  0  0  0  0
   56.3718  154.4933   -6.8891 O   0  0  0  0  0  0  0  0  0  0  0  0
   60.8824  161.5341   -2.1974 H   0  0  0  0  0  0  0  0  0  0  0  0
   59.6629  161.2230   -0.0368 H   0  0  0  0  0  0  0  0  0  0  0  0
   54.4954  156.0192   -3.0555 H   0  0  0  0  0  0  0  0  0  0  0  0
   57.0463  158.6795   -5.2857 H   0  0  0  0  0  0  0  0  0  0  0  0
   54.8677  154.2533   -4.7385 H   0  0  0  0  0  0  0  0  0  0  0  0
   57.4168  156.9117   -6.9667 H   0  0  0  0  0  0  0  0  0  0  0  0
   60.0149  160.3884   -4.2399 H   0  0  0  0  0  0  0  0  0  0  0  0
   57.7496  158.7774    0.7751 H   0  0  0  0  0  0  0  0  0  0  0  0
   57.0432  160.4251    0.8338 H   0  0  0  0  0  0  0  0  0  0  0  0
   55.4873  158.3335    0.0149 H   0  0  0  0  0  0  0  0  0  0  0  0
   55.3734  159.9184   -0.7513 H   0  0  0  0  0  0  0  0  0  0  0  0
   56.8920  157.4590   -1.7657 H   0  0  0  0  0  0  0  0  0  0  0  0
   55.4059  160.7551   -2.9641 H   0  0  0  0  0  0  0  0  0  0  0  0
   54.7948  160.0570   -4.4662 H   0  0  0  0  0  0  0  0  0  0  0  0
   56.5372  160.1377   -4.1722 H   0  0  0  0  0  0  0  0  0  0  0  0
   55.9667  152.5564   -7.4856 H   0  0  0  0  0  0  0  0  0  0  0  0
   54.6371  153.3993   -6.6314 H   0  0  0  0  0  0  0  0  0  0  0  0
   56.0605  152.8224   -5.7251 H   0  0  0  0  0  0  0  0  0  0  0  0
   54.0822  157.8115   -1.6411 H   0  0  0  0  0  0  0  0  0  0  0  0
   53.4175  158.8511   -2.8785 H   0  0  0  0  0  0  0  0  0  0  0  0
  1  2  1  0  0  0  0
  1  7  2  0  0  0  0
  2  8  2  0  0  0  0
  3  5  2  0  0  0  0
  3  9  1  0  0  0  0
  4  6  1  0  0  0  0
  4  9  2  0  0  0  0
  5 10  1  0  0  0  0
  6 10  2  0  0  0  0
  7 18  1  0  0  0  0
  8 11  1  0  0  0  0
  8 12  1  0  0  0  0
  9 17  1  0  0  0  0
 10 20  1  0  0  0  0
 11 14  1  0  0  0  0
 11 18  2  0  0  0  0
 12 13  1  0  0  0  0
 13 14  1  0  0  0  0
 14 17  1  0  0  0  0
 15 17  1  0  0  0  0
 16 20  1  0  0  0  0
 17 19  1  0  0  0  0
  1 21  1  0  0  0  0
  2 22  1  0  0  0  0
  3 23  1  0  0  0  0
  4 24  1  0  0  0  0
  5 25  1  0  0  0  0
  6 26  1  0  0  0  0
  7 27  1  0  0  0  0
 12 28  1  0  0  0  0
 12 29  1  0  0  0  0
 13 30  1  0  0  0  0
 13 31  1  0  0  0  0
 14 32  1  0  0  0  0
 15 33  1  0  0  0  0
 15 34  1  0  0  0  0
 15 35  1  0  0  0  0
 16 36  1  0  0  0  0
 16 37  1  0  0  0  0
 16 38  1  0  0  0  0
 19 39  1  0  0  0  0
 19 40  1  0  0  0  0
M  END
> <FRED Chemgauss4 score>
-7.269354

$$$$
C05131842	P07583908
  -OEChem-05122015073D

 29 29  0     1  0  0  0  0  0999 V2000
   53.9784  156.0676   -3.6114 C   0  0  0  0  0  0  0  0  0  0  0  0
   55.5261  156.1199   -5.3912 C   0  0  1  0  0  0  0  0  0  0  0  0
   54.1789  156.6769   -5.8763 C   0  0  1  0  0  0  0  0  0  0  0  0
   57.5325  154.2504   -7.0607 C   0  0  0  0  0  0  0  0  0  0  0  0
   56.7485  156.9711   -5.7066 C   0  0  2  0  0  0  0  0  0  0  0  0
   58.5022  155.3971   -6.7780 C   0  0  1  0  0  0  0  0  0  0  0  0
   58.0874  156.2286   -5.5545 C   0  0  1  0  0  0  0  0  0  0  0  0
   55.3326  155.9629   -3.9631 N   0  0  0  0  0  0  0  0  0  0  0  0
   53.2814  156.4277   -4.7740 N   0  0  0  0  0  0  0  0  0  0  0  0
   53.4969  155.8758   -2.5032 O   0  0  0  0  0  0  0  0  0  0  0  0
   54.2258  158.0740   -6.1071 O   0  0  0  0  0  0  0  0  0  0  0  0
   58.0046  153.5183   -8.1874 O   0  0  0  0  0  0  0  0  0  0  0  0
   56.7501  158.0888   -4.8123 O   0  0  0  0  0  0  0  0  0  0  0  0
   59.8009  154.8471   -6.5489 O   0  0  0  0  0  0  0  0  0  0  0  0
   59.1052  157.2065   -5.3087 O   0  0  0  0  0  0  0  0  0  0  0  0
   55.6650  155.1049   -5.7829 H   0  0  0  0  0  0  0  0  0  0  0  0
   53.8168  156.1722   -6.7767 H   0  0  0  0  0  0  0  0  0  0  0  0
   57.4760  153.5647   -6.2098 H   0  0  0  0  0  0  0  0  0  0  0  0
   56.5316  154.6216   -7.3029 H   0  0  0  0  0  0  0  0  0  0  0  0
   56.6578  157.3896   -6.7150 H   0  0  0  0  0  0  0  0  0  0  0  0
   58.5768  156.0385   -7.6632 H   0  0  0  0  0  0  0  0  0  0  0  0
   58.0587  155.5820   -4.6688 H   0  0  0  0  0  0  0  0  0  0  0  0
   56.0835  155.7977   -3.3000 H   0  0  0  0  0  0  0  0  0  0  0  0
   52.2709  156.5036   -4.8328 H   0  0  0  0  0  0  0  0  0  0  0  0
   53.3414  158.3425   -6.4085 H   0  0  0  0  0  0  0  0  0  0  0  0
   57.3688  152.8015   -8.3384 H   0  0  0  0  0  0  0  0  0  0  0  0
   57.5346  158.6108   -5.0341 H   0  0  0  0  0  0  0  0  0  0  0  0
   60.0417  154.3708   -7.3573 H   0  0  0  0  0  0  0  0  0  0  0  0
   58.8502  157.6606   -4.4931 H   0  0  0  0  0  0  0  0  0  0  0  0
  1  8  1  0  0  0  0
  1  9  1  0  0  0  0
  1 10  2  0  0  0  0
  2  3  1  0  0  0  0
  2  5  1  0  0  0  0
  2  8  1  0  0  0  0
  3  9  1  0  0  0  0
  3 11  1  0  0  0  0
  4  6  1  0  0  0  0
  4 12  1  0  0  0  0
  5  7  1  0  0  0  0
  5 13  1  0  0  0  0
  6  7  1  0  0  0  0
  6 14  1  0  0  0  0
  7 15  1  0  0  0  0
  2 16  1  0  0  0  0
  3 17  1  0  0  0  0
  4 18  1  0  0  0  0
  4 19  1  0  0  0  0
  5 20  1  0  0  0  0
  6 21  1  0  0  0  0
  7 22  1  0  0  0  0
  8 23  1  0  0  0  0
  9 24  1  0  0  0  0
 11 25  1  0  0  0  0
 12 26  1  0  0  0  0
 13 27  1  0  0  0  0
 14 28  1  0  0  0  0
 15 29  1  0  0  0  0
M  END
> <FRED Chemgauss4 score>
-7.262989

$$$$
C04403147	P153350511
  -OEChem-05122015073D

 30 30  0     1  0  0  0  0  0999 V2000
   54.4161  156.0848   -3.4931 C   0  0  0  0  0  0  0  0  0  0  0  0
   53.4601  155.1378   -4.1719 C   0  0  2  0  0  0  0  0  0  0  0  0
   53.9827  155.1405   -5.5938 C   0  0  2  0  0  0  0  0  0  0  0  0
   55.4797  155.2478   -5.3507 C   0  0  1  0  0  0  0  0  0  0  0  0
   59.6649  153.9290   -6.9138 C   0  0  0  0  0  0  0  0  0  0  0  0
   56.2934  155.8378   -6.4944 C   0  0  2  0  0  0  0  0  0  0  0  0
   58.2214  154.1113   -6.4465 C   0  0  1  0  0  0  0  0  0  0  0  0
   57.8075  155.5894   -6.3820 C   0  0  1  0  0  0  0  0  0  0  0  0
   54.1982  156.7280   -2.4792 O   0  0  0  0  0  0  0  0  0  0  0  0
   55.5930  156.1053   -4.1975 O   0  0  0  0  0  0  0  0  0  0  0  0
   52.1175  155.5320   -4.0834 O   0  0  0  0  0  0  0  0  0  0  0  0
   53.4820  156.2822   -6.2826 O   0  0  0  0  0  0  0  0  0  0  0  0
   59.9554  152.5359   -6.9716 O   0  0  0  0  0  0  0  0  0  0  0  0
   56.0697  157.2517   -6.5112 O   0  0  0  0  0  0  0  0  0  0  0  0
   57.3598  153.4255   -7.3569 O   0  0  0  0  0  0  0  0  0  0  0  0
   58.4465  156.2834   -7.4602 O   0  0  0  0  0  0  0  0  0  0  0  0
   53.5837  154.1493   -3.7142 H   0  0  0  0  0  0  0  0  0  0  0  0
   53.6922  154.2478   -6.1556 H   0  0  0  0  0  0  0  0  0  0  0  0
   55.8962  154.2726   -5.0692 H   0  0  0  0  0  0  0  0  0  0  0  0
   59.8100  154.3477   -7.9143 H   0  0  0  0  0  0  0  0  0  0  0  0
   60.3736  154.3863   -6.2159 H   0  0  0  0  0  0  0  0  0  0  0  0
   55.9156  155.4596   -7.4507 H   0  0  0  0  0  0  0  0  0  0  0  0
   58.0931  153.6397   -5.4658 H   0  0  0  0  0  0  0  0  0  0  0  0
   58.1923  156.0343   -5.4560 H   0  0  0  0  0  0  0  0  0  0  0  0
   51.8808  155.5780   -3.1371 H   0  0  0  0  0  0  0  0  0  0  0  0
   53.8407  156.2420   -7.1830 H   0  0  0  0  0  0  0  0  0  0  0  0
   60.8749  152.4567   -7.2702 H   0  0  0  0  0  0  0  0  0  0  0  0
   56.5967  157.5996   -7.2448 H   0  0  0  0  0  0  0  0  0  0  0  0
   57.6246  152.4940   -7.3336 H   0  0  0  0  0  0  0  0  0  0  0  0
   58.2253  157.2186   -7.3465 H   0  0  0  0  0  0  0  0  0  0  0  0
  1  2  1  0  0  0  0
  1  9  2  0  0  0  0
  1 10  1  0  0  0  0
  2  3  1  0  0  0  0
  2 11  1  0  0  0  0
  3  4  1  0  0  0  0
  3 12  1  0  0  0  0
  4  6  1  0  0  0  0
  4 10  1  0  0  0  0
  5  7  1  0  0  0  0
  5 13  1  0  0  0  0
  6  8  1  0  0  0  0
  6 14  1  0  0  0  0
  7  8  1  0  0  0  0
  7 15  1  0  0  0  0
  8 16  1  0  0  0  0
  2 17  1  0  0  0  0
  3 18  1  0  0  0  0
  4 19  1  0  0  0  0
  5 20  1  0  0  0  0
  5 21  1  0  0  0  0
  6 22  1  0  0  0  0
  7 23  1  0  0  0  0
  8 24  1  0  0  0  0
 11 25  1  0  0  0  0
 12 26  1  0  0  0  0
 13 27  1  0  0  0  0
 14 28  1  0  0  0  0
 15 29  1  0  0  0  0
 16 30  1  0  0  0  0
M  END
> <FRED Chemgauss4 score>
-7.260225

$$$$
C84405170	P132073028
  -OEChem-05122015073D

 28 28  0     1  0  0  0  0  0999 V2000
   53.5578  156.0449   -3.3403 C   0  0  0  0  0  0  0  0  0  0  0  0
   53.5291  156.0023   -5.8488 C   0  0  0  0  0  0  0  0  0  0  0  0
   55.5479  152.9419   -7.5019 C   0  0  0  0  0  0  0  0  0  0  0  0
   53.7234  152.1353   -8.9798 C   0  0  0  0  0  0  0  0  0  0  0  0
   54.7668  155.1412   -3.3459 C   0  0  0  0  0  0  0  0  0  0  0  0
   55.6025  155.3454   -4.5977 C   0  0  0  0  0  0  0  0  0  0  0  0
   54.7409  155.0863   -5.8270 C   0  0  2  0  0  0  0  0  0  0  0  0
   56.3945  154.1846   -7.3149 C   0  0  0  0  0  0  0  0  0  0  0  0
   53.0541  156.3796   -4.5934 N   0  0  0  0  0  0  0  0  0  0  0  0
   52.9813  152.5770  -10.0615 N   0  0  0  0  0  0  0  0  0  0  0  0
   54.6551  153.0927   -8.5663 N   0  0  0  0  0  0  0  0  0  0  0  0
   55.5247  155.3178   -7.0374 N   0  0  0  0  0  0  0  0  0  0  0  0
   53.0329  156.4092   -2.2885 O   0  0  0  0  0  0  0  0  0  0  0  0
   52.9724  156.3467   -6.8915 O   0  0  0  0  0  0  0  0  0  0  0  0
   55.6324  151.9465   -6.7872 O   0  0  0  0  0  0  0  0  0  0  0  0
   53.5619  151.0308   -8.4642 O   0  0  0  0  0  0  0  0  0  0  0  0
   55.3713  155.3640   -2.4600 H   0  0  0  0  0  0  0  0  0  0  0  0
   54.4191  154.1049   -3.2718 H   0  0  0  0  0  0  0  0  0  0  0  0
   55.9940  156.3715   -4.6115 H   0  0  0  0  0  0  0  0  0  0  0  0
   56.4635  154.6666   -4.5790 H   0  0  0  0  0  0  0  0  0  0  0  0
   54.3757  154.0489   -5.8211 H   0  0  0  0  0  0  0  0  0  0  0  0
   57.0827  154.0381   -6.4764 H   0  0  0  0  0  0  0  0  0  0  0  0
   56.9754  154.3610   -8.2255 H   0  0  0  0  0  0  0  0  0  0  0  0
   52.2317  156.9771   -4.5939 H   0  0  0  0  0  0  0  0  0  0  0  0
   53.1629  153.5002  -10.4410 H   0  0  0  0  0  0  0  0  0  0  0  0
   52.2606  152.0022  -10.4847 H   0  0  0  0  0  0  0  0  0  0  0  0
   54.6854  153.9685   -9.0815 H   0  0  0  0  0  0  0  0  0  0  0  0
   56.0903  156.1553   -6.9111 H   0  0  0  0  0  0  0  0  0  0  0  0
  1  5  1  0  0  0  0
  1  9  1  0  0  0  0
  1 13  2  0  0  0  0
  2  7  1  0  0  0  0
  2  9  1  0  0  0  0
  2 14  2  0  0  0  0
  3  8  1  0  0  0  0
  3 11  1  0  0  0  0
  3 15  2  0  0  0  0
  4 10  1  0  0  0  0
  4 11  1  0  0  0  0
  4 16  2  0  0  0  0
  5  6  1  0  0  0  0
  6  7  1  0  0  0  0
  7 12  1  0  0  0  0
  8 12  1  0  0  0  0
  5 17  1  0  0  0  0
  5 18  1  0  0  0  0
  6 19  1  0  0  0  0
  6 20  1  0  0  0  0
  7 21  1  0  0  0  0
  8 22  1  0  0  0  0
  8 23  1  0  0  0  0
  9 24  1  0  0  0  0
 10 25  1  0  0  0  0
 10 26  1  0  0  0  0
 11 27  1  0  0  0  0
 12 28  1  0  0  0  0
M  END
> <FRED Chemgauss4 score>
-7.253328

$$$$
C93828570	P147036134
  -OEChem-05122015073D

 49 52  0     1  0  0  0  0  0999 V2000
   53.5857  156.1283   -3.8356 C   0  0  0  0  0  0  0  0  0  0  0  0
   57.0148  163.3580   -2.4940 C   0  0  0  0  0  0  0  0  0  0  0  0
   57.4732  162.5858   -1.2906 C   0  0  0  0  0  0  0  0  0  0  0  0
   55.3925  157.6747   -6.2800 C   0  0  0  0  0  0  0  0  0  0  0  0
   55.4426  152.4951   -6.5268 C   0  0  0  0  0  0  0  0  0  0  0  0
   54.5046  153.3710   -7.3065 C   0  0  0  0  0  0  0  0  0  0  0  0
   54.3822  156.5245   -6.1749 C   0  0  0  0  0  0  0  0  0  0  0  0
   56.0154  156.3947   -4.3656 C   0  0  0  0  0  0  0  0  0  0  0  0
   56.5943  160.8824   -4.5354 C   0  0  0  0  0  0  0  0  0  0  0  0
   57.2329  159.5780   -2.6046 C   0  0  0  0  0  0  0  0  0  0  0  0
   57.2264  159.8287   -5.4535 C   0  0  0  0  0  0  0  0  0  0  0  0
   57.8639  158.5268   -3.5261 C   0  0  0  0  0  0  0  0  0  0  0  0
   56.6567  161.9060   -2.3527 C   0  0  0  0  0  0  0  0  0  0  0  0
   55.9644  157.8340   -4.8745 C   0  0  1  0  0  0  0  0  0  0  0  0
   55.3222  153.9539   -6.1890 C   0  0  0  0  0  0  0  0  0  0  0  0
   54.6715  155.8251   -4.8343 C   0  0  1  0  0  0  0  0  0  0  0  0
   57.2627  160.9057   -3.2291 N   0  0  0  0  0  0  0  0  0  0  0  0
   57.2742  158.4823   -4.8699 N   0  0  0  0  0  0  0  0  0  0  0  0
   52.3356  155.7172   -4.2336 N   0  0  0  0  0  0  0  0  0  0  0  0
   54.6864  154.3734   -4.9474 N   0  0  0  0  0  0  0  0  0  0  0  0
   53.8209  156.6780   -2.7623 O   0  0  0  0  0  0  0  0  0  0  0  0
   56.2417  164.1027   -2.3483 H   0  0  0  0  0  0  0  0  0  0  0  0
   57.7593  163.6251   -3.2343 H   0  0  0  0  0  0  0  0  0  0  0  0
   58.5241  162.3322   -1.2237 H   0  0  0  0  0  0  0  0  0  0  0  0
   57.0060  162.8126   -0.3398 H   0  0  0  0  0  0  0  0  0  0  0  0
   56.1764  157.3975   -6.9969 H   0  0  0  0  0  0  0  0  0  0  0  0
   54.9268  158.5963   -6.6442 H   0  0  0  0  0  0  0  0  0  0  0  0
   55.0068  151.7661   -5.8543 H   0  0  0  0  0  0  0  0  0  0  0  0
   56.3486  152.1637   -7.0195 H   0  0  0  0  0  0  0  0  0  0  0  0
   54.7815  153.6296   -8.3212 H   0  0  0  0  0  0  0  0  0  0  0  0
   53.4414  153.2291   -7.1549 H   0  0  0  0  0  0  0  0  0  0  0  0
   53.3564  156.9065   -6.2321 H   0  0  0  0  0  0  0  0  0  0  0  0
   54.5164  155.8542   -7.0328 H   0  0  0  0  0  0  0  0  0  0  0  0
   56.8514  155.8530   -4.8289 H   0  0  0  0  0  0  0  0  0  0  0  0
   56.1484  156.3530   -3.2785 H   0  0  0  0  0  0  0  0  0  0  0  0
   56.6410  161.8697   -5.0143 H   0  0  0  0  0  0  0  0  0  0  0  0
   55.5340  160.6355   -4.4042 H   0  0  0  0  0  0  0  0  0  0  0  0
   56.1944  159.2855   -2.4075 H   0  0  0  0  0  0  0  0  0  0  0  0
   57.7556  159.5894   -1.6386 H   0  0  0  0  0  0  0  0  0  0  0  0
   56.6808  159.8132   -6.4223 H   0  0  0  0  0  0  0  0  0  0  0  0
   58.2562  160.1614   -5.6984 H   0  0  0  0  0  0  0  0  0  0  0  0
   58.9481  158.7488   -3.6066 H   0  0  0  0  0  0  0  0  0  0  0  0
   57.8007  157.5285   -3.0404 H   0  0  0  0  0  0  0  0  0  0  0  0
   55.6235  161.6884   -2.1010 H   0  0  0  0  0  0  0  0  0  0  0  0
   55.2753  158.4229   -4.2626 H   0  0  0  0  0  0  0  0  0  0  0  0
   56.1561  154.5848   -6.4801 H   0  0  0  0  0  0  0  0  0  0  0  0
   52.2374  155.2584   -5.1333 H   0  0  0  0  0  0  0  0  0  0  0  0
   51.5071  155.8542   -3.6637 H   0  0  0  0  0  0  0  0  0  0  0  0
   55.1992  153.9804   -4.1585 H   0  0  0  0  0  0  0  0  0  0  0  0
  1 16  1  0  0  0  0
  1 19  1  0  0  0  0
  1 21  2  0  0  0  0
  2  3  1  0  0  0  0
  2 13  1  0  0  0  0
  3 13  1  0  0  0  0
  4  7  1  0  0  0  0
  4 14  1  0  0  0  0
  5  6  1  0  0  0  0
  5 15  1  0  0  0  0
  6 15  1  0  0  0  0
  7 16  1  0  0  0  0
  8 14  1  0  0  0  0
  8 16  1  0  0  0  0
  9 11  1  0  0  0  0
  9 17  1  0  0  0  0
 10 12  1  0  0  0  0
 10 17  1  0  0  0  0
 11 18  1  0  0  0  0
 12 18  1  0  0  0  0
 13 17  1  0  0  0  0
 14 18  1  0  0  0  0
 15 20  1  0  0  0  0
 16 20  1  0  0  0  0
  2 22  1  0  0  0  0
  2 23  1  0  0  0  0
  3 24  1  0  0  0  0
  3 25  1  0  0  0  0
  4 26  1  0  0  0  0
  4 27  1  0  0  0  0
  5 28  1  0  0  0  0
  5 29  1  0  0  0  0
  6 30  1  0  0  0  0
  6 31  1  0  0  0  0
  7 32  1  0  0  0  0
  7 33  1  0  0  0  0
  8 34  1  0  0  0  0
  8 35  1  0  0  0  0
  9 36  1  0  0  0  0
  9 37  1  0  0  0  0
 10 38  1  0  0  0  0
 10 39  1  0  0  0  0
 11 40  1  0  0  0  0
 11 41  1  0  0  0  0
 12 42  1  0  0  0  0
 12 43  1  0  0  0  0
 13 44  1  0  0  0  0
 14 45  1  0  0  0  0
 15 46  1  0  0  0  0
 19 47  1  0  0  0  0
 19 48  1  0  0  0  0
 20 49  1  0  0  0  0
M  END
> <FRED Chemgauss4 score>
-7.251274

$$$$
C41058632	P62326118
  -OEChem-05122015073D

 31 31  0     1  0  0  0  0  0999 V2000
   55.0680  157.6189   -2.9592 C   0  0  0  0  0  0  0  0  0  0  0  0
   54.3014  156.8418   -4.7384 C   0  0  0  0  0  0  0  0  0  0  0  0
   56.5124  159.6805   -0.0321 C   0  0  0  0  0  0  0  0  0  0  0  0
   56.5393  155.9454   -6.6430 C   0  0  0  0  0  0  0  0  0  0  0  0
   55.2624  154.0606   -5.6224 C   0  0  0  0  0  0  0  0  0  0  0  0
   56.0403  158.0681   -1.9559 C   0  0  0  0  0  0  0  0  0  0  0  0
   55.5196  159.2428   -1.0972 C   0  0  0  0  0  0  0  0  0  0  0  0
   54.0587  156.2480   -6.1145 C   0  0  1  0  0  0  0  0  0  0  0  0
   55.1666  155.2645   -6.5703 C   0  0  0  0  0  0  0  0  0  0  0  0
   55.4523  157.1102   -4.1668 N   0  0  0  0  0  0  0  0  0  0  0  0
   53.7517  157.6820   -2.7477 N   0  0  0  0  0  0  0  0  0  0  0  0
   53.2845  157.1791   -3.9005 N   0  0  0  0  0  0  0  0  0  0  0  0
   52.7559  155.6181   -6.0969 N   0  0  0  0  0  0  0  0  0  0  0  0
   56.7628  158.8500    0.6357 H   0  0  0  0  0  0  0  0  0  0  0  0
   57.4380  160.0485   -0.4861 H   0  0  0  0  0  0  0  0  0  0  0  0
   56.0873  160.4869    0.5739 H   0  0  0  0  0  0  0  0  0  0  0  0
   56.8300  156.3552   -5.6696 H   0  0  0  0  0  0  0  0  0  0  0  0
   57.3107  155.2315   -6.9520 H   0  0  0  0  0  0  0  0  0  0  0  0
   56.5452  156.7613   -7.3723 H   0  0  0  0  0  0  0  0  0  0  0  0
   55.4993  154.3781   -4.6012 H   0  0  0  0  0  0  0  0  0  0  0  0
   56.0458  153.3690   -5.9512 H   0  0  0  0  0  0  0  0  0  0  0  0
   54.3237  153.4983   -5.5956 H   0  0  0  0  0  0  0  0  0  0  0  0
   56.3322  157.2441   -1.2687 H   0  0  0  0  0  0  0  0  0  0  0  0
   56.9981  158.3842   -2.4241 H   0  0  0  0  0  0  0  0  0  0  0  0
   55.2910  160.0962   -1.7472 H   0  0  0  0  0  0  0  0  0  0  0  0
   54.5791  158.9522   -0.6136 H   0  0  0  0  0  0  0  0  0  0  0  0
   53.9800  157.0535   -6.8563 H   0  0  0  0  0  0  0  0  0  0  0  0
   54.9285  154.8747   -7.5687 H   0  0  0  0  0  0  0  0  0  0  0  0
   52.2835  157.1002   -4.0366 H   0  0  0  0  0  0  0  0  0  0  0  0
   52.5471  154.9227   -6.7890 H   0  0  0  0  0  0  0  0  0  0  0  0
   52.0308  156.0260   -5.5361 H   0  0  0  0  0  0  0  0  0  0  0  0
  1  6  1  0  0  0  0
  1 10  1  0  0  0  0
  1 11  2  0  0  0  0
  2  8  1  0  0  0  0
  2 10  2  0  0  0  0
  2 12  1  0  0  0  0
  3  7  1  0  0  0  0
  4  9  1  0  0  0  0
  5  9  1  0  0  0  0
  6  7  1  0  0  0  0
  8  9  1  0  0  0  0
  8 13  1  0  0  0  0
 11 12  1  0  0  0  0
  3 14  1  0  0  0  0
  3 15  1  0  0  0  0
  3 16  1  0  0  0  0
  4 17  1  0  0  0  0
  4 18  1  0  0  0  0
  4 19  1  0  0  0  0
  5 20  1  0  0  0  0
  5 21  1  0  0  0  0
  5 22  1  0  0  0  0
  6 23  1  0  0  0  0
  6 24  1  0  0  0  0
  7 25  1  0  0  0  0
  7 26  1  0  0  0  0
  8 27  1  0  0  0  0
  9 28  1  0  0  0  0
 12 29  1  0  0  0  0
 13 30  1  0  0  0  0
 13 31  1  0  0  0  0
M  END
> <FRED Chemgauss4 score>
-7.250446

$$$$
C83274984	P130168707
  -OEChem-05122015073D

 27 28  0     1  0  0  0  0  0999 V2000
   57.1764  155.4964   -5.7778 C   0  0  0  0  0  0  0  0  0  0  0  0
   55.1548  155.6436   -4.9679 C   0  0  0  0  0  0  0  0  0  0  0  0
   58.3018  154.9936   -6.6065 C   0  0  0  0  0  0  0  0  0  0  0  0
   58.0429  153.5672   -7.1035 C   0  0  0  0  0  0  0  0  0  0  0  0
   56.6173  153.4216   -7.6455 C   0  0  0  0  0  0  0  0  0  0  0  0
   55.5850  153.7393   -6.5617 C   0  0  0  0  0  0  0  0  0  0  0  0
   53.2667  155.7403   -3.2853 C   0  0  0  0  0  0  0  0  0  0  0  0
   53.7375  155.3391   -4.7029 C   0  0  1  0  0  0  0  0  0  0  0  0
   57.1481  156.5258   -4.9571 N   0  0  0  0  0  0  0  0  0  0  0  0
   55.8665  156.6174   -4.4436 N   0  0  0  0  0  0  0  0  0  0  0  0
   55.9359  154.9230   -5.8098 N   0  0  0  0  0  0  0  0  0  0  0  0
   52.8472  155.9468   -5.6905 N   0  0  0  0  0  0  0  0  0  0  0  0
   54.0439  155.0763   -2.2939 O   0  0  0  0  0  0  0  0  0  0  0  0
   58.4279  155.6625   -7.4663 H   0  0  0  0  0  0  0  0  0  0  0  0
   59.2344  155.0218   -6.0330 H   0  0  0  0  0  0  0  0  0  0  0  0
   58.7699  153.3110   -7.8824 H   0  0  0  0  0  0  0  0  0  0  0  0
   58.1901  152.8567   -6.2800 H   0  0  0  0  0  0  0  0  0  0  0  0
   56.4838  154.1057   -8.4932 H   0  0  0  0  0  0  0  0  0  0  0  0
   56.4566  152.4060   -8.0229 H   0  0  0  0  0  0  0  0  0  0  0  0
   54.5982  153.8925   -7.0106 H   0  0  0  0  0  0  0  0  0  0  0  0
   55.5222  152.9165   -5.8405 H   0  0  0  0  0  0  0  0  0  0  0  0
   53.3947  156.8185   -3.1393 H   0  0  0  0  0  0  0  0  0  0  0  0
   52.2134  155.4867   -3.1233 H   0  0  0  0  0  0  0  0  0  0  0  0
   53.5300  154.2527   -4.8100 H   0  0  0  0  0  0  0  0  0  0  0  0
   51.8997  156.1085   -5.4288 H   0  0  0  0  0  0  0  0  0  0  0  0
   53.1569  155.9874   -6.6365 H   0  0  0  0  0  0  0  0  0  0  0  0
   53.7028  155.3670   -1.4334 H   0  0  0  0  0  0  0  0  0  0  0  0
  1  3  1  0  0  0  0
  1  9  2  0  0  0  0
  1 11  1  0  0  0  0
  2  8  1  0  0  0  0
  2 10  2  0  0  0  0
  2 11  1  0  0  0  0
  3  4  1  0  0  0  0
  4  5  1  0  0  0  0
  5  6  1  0  0  0  0
  6 11  1  0  0  0  0
  7  8  1  0  0  0  0
  7 13  1  0  0  0  0
  8 12  1  0  0  0  0
  9 10  1  0  0  0  0
  3 14  1  0  0  0  0
  3 15  1  0  0  0  0
  4 16  1  0  0  0  0
  4 17  1  0  0  0  0
  5 18  1  0  0  0  0
  5 19  1  0  0  0  0
  6 20  1  0  0  0  0
  6 21  1  0  0  0  0
  7 22  1  0  0  0  0
  7 23  1  0  0  0  0
  8 24  1  0  0  0  0
 12 25  1  0  0  0  0
 12 26  1  0  0  0  0
 13 27  1  0  0  0  0
M  END
> <FRED Chemgauss4 score>
-7.250197

$$$$
C97715332	P155012524
  -OEChem-05122015073D

 43 44  0     1  0  0  0  0  0999 V2000
   56.3676  158.2078   -4.3481 C   0  0  0  0  0  0  0  0  0  0  0  0
   56.6624  158.7970   -3.1236 C   0  0  0  0  0  0  0  0  0  0  0  0
   54.4749  157.1802   -3.3390 C   0  0  0  0  0  0  0  0  0  0  0  0
   58.7508  156.7313   -7.0704 C   0  0  0  0  0  0  0  0  0  0  0  0
   55.2547  157.3826   -4.4662 C   0  0  0  0  0  0  0  0  0  0  0  0
   59.5520  155.6324   -7.3356 C   0  0  0  0  0  0  0  0  0  0  0  0
   57.6969  154.2427   -6.6939 C   0  0  0  0  0  0  0  0  0  0  0  0
   59.0074  154.3679   -7.1412 C   0  0  0  0  0  0  0  0  0  0  0  0
   55.8194  158.5313   -2.0565 C   0  0  0  0  0  0  0  0  0  0  0  0
   56.9788  155.4038   -6.4572 C   0  0  0  0  0  0  0  0  0  0  0  0
   60.9499  155.8196   -7.8132 C   0  0  0  0  0  0  0  0  0  0  0  0
   57.0902  152.8974   -6.4776 C   0  0  0  0  0  0  0  0  0  0  0  0
   56.1053  159.1472   -0.7277 C   0  0  0  0  0  0  0  0  0  0  0  0
   59.7033  152.7204   -8.7087 C   0  0  0  0  0  0  0  0  0  0  0  0
   55.5498  155.3310   -5.9694 C   0  0  0  0  0  0  0  0  0  0  0  0
   54.9129  156.7375   -5.7621 C   0  0  1  0  0  0  0  0  0  0  0  0
   54.7294  157.7352   -2.1329 N   0  0  0  0  0  0  0  0  0  0  0  0
   57.4737  156.6493   -6.6347 N   0  0  0  0  0  0  0  0  0  0  0  0
   52.9641  157.8568   -6.4066 N   0  0  0  0  0  0  0  0  0  0  0  0
   53.4504  156.6026   -5.9511 N   0  0  0  0  0  0  0  0  0  0  0  0
   59.7570  153.2565   -7.3887 O   0  0  0  0  0  0  0  0  0  0  0  0
   57.0095  158.3969   -5.2040 H   0  0  0  0  0  0  0  0  0  0  0  0
   57.5275  159.4426   -3.0181 H   0  0  0  0  0  0  0  0  0  0  0  0
   53.5941  156.5462   -3.3706 H   0  0  0  0  0  0  0  0  0  0  0  0
   59.1210  157.7434   -7.2035 H   0  0  0  0  0  0  0  0  0  0  0  0
   61.6423  155.8748   -6.9632 H   0  0  0  0  0  0  0  0  0  0  0  0
   61.2655  154.9922   -8.4634 H   0  0  0  0  0  0  0  0  0  0  0  0
   61.0518  156.7410   -8.4030 H   0  0  0  0  0  0  0  0  0  0  0  0
   57.2665  152.5600   -5.4489 H   0  0  0  0  0  0  0  0  0  0  0  0
   56.0075  152.9151   -6.6574 H   0  0  0  0  0  0  0  0  0  0  0  0
   57.5142  152.1541   -7.1652 H   0  0  0  0  0  0  0  0  0  0  0  0
   55.6021  160.1176   -0.6412 H   0  0  0  0  0  0  0  0  0  0  0  0
   55.7624  158.5024    0.0914 H   0  0  0  0  0  0  0  0  0  0  0  0
   57.1827  159.2990   -0.5835 H   0  0  0  0  0  0  0  0  0  0  0  0
   60.3449  151.8380   -8.7708 H   0  0  0  0  0  0  0  0  0  0  0  0
   60.0358  153.4769   -9.4240 H   0  0  0  0  0  0  0  0  0  0  0  0
   58.6731  152.4356   -8.9351 H   0  0  0  0  0  0  0  0  0  0  0  0
   55.5482  154.7582   -5.0314 H   0  0  0  0  0  0  0  0  0  0  0  0
   54.9501  154.7381   -6.6725 H   0  0  0  0  0  0  0  0  0  0  0  0
   55.2524  157.3758   -6.6016 H   0  0  0  0  0  0  0  0  0  0  0  0
   52.3054  158.2391   -5.7286 H   0  0  0  0  0  0  0  0  0  0  0  0
   53.7489  158.5067   -6.4293 H   0  0  0  0  0  0  0  0  0  0  0  0
   53.2862  155.8895   -6.6494 H   0  0  0  0  0  0  0  0  0  0  0  0
  1  2  2  0  0  0  0
  1  5  1  0  0  0  0
  2  9  1  0  0  0  0
  3  5  2  0  0  0  0
  3 17  1  0  0  0  0
  4  6  2  0  0  0  0
  4 18  1  0  0  0  0
  5 16  1  0  0  0  0
  6  8  1  0  0  0  0
  6 11  1  0  0  0  0
  7  8  2  0  0  0  0
  7 10  1  0  0  0  0
  7 12  1  0  0  0  0
  8 21  1  0  0  0  0
  9 13  1  0  0  0  0
  9 17  2  0  0  0  0
 10 15  1  0  0  0  0
 10 18  2  0  0  0  0
 14 21  1  0  0  0  0
 15 16  1  0  0  0  0
 16 20  1  0  0  0  0
 19 20  1  0  0  0  0
  1 22  1  0  0  0  0
  2 23  1  0  0  0  0
  3 24  1  0  0  0  0
  4 25  1  0  0  0  0
 11 26  1  0  0  0  0
 11 27  1  0  0  0  0
 11 28  1  0  0  0  0
 12 29  1  0  0  0  0
 12 30  1  0  0  0  0
 12 31  1  0  0  0  0
 13 32  1  0  0  0  0
 13 33  1  0  0  0  0
 13 34  1  0  0  0  0
 14 35  1  0  0  0  0
 14 36  1  0  0  0  0
 14 37  1  0  0  0  0
 15 38  1  0  0  0  0
 15 39  1  0  0  0  0
 16 40  1  0  0  0  0
 19 41  1  0  0  0  0
 19 42  1  0  0  0  0
 20 43  1  0  0  0  0
M  END
> <FRED Chemgauss4 score>
-7.245831

$$$$
C50393690	P75386039
  -OEChem-05122015073D

 31 32  0     1  0  0  0  0  0999 V2000
   58.9065  161.1093   -1.6300 C   0  0  0  0  0  0  0  0  0  0  0  0
   58.2850  160.0186   -2.2379 C   0  0  0  0  0  0  0  0  0  0  0  0
   59.6763  161.9876   -2.3928 C   0  0  0  0  0  0  0  0  0  0  0  0
   58.4332  159.8060   -3.6085 C   0  0  0  0  0  0  0  0  0  0  0  0
   59.8245  161.7751   -3.7634 C   0  0  0  0  0  0  0  0  0  0  0  0
   59.2030  160.6843   -4.3712 C   0  0  0  0  0  0  0  0  0  0  0  0
   54.1233  157.8799   -4.7382 C   0  0  0  0  0  0  0  0  0  0  0  0
   55.3184  155.3659   -5.6901 C   0  0  0  0  0  0  0  0  0  0  0  0
   56.1052  156.3571   -4.8231 C   0  0  0  0  0  0  0  0  0  0  0  0
   54.0733  155.9785   -6.3176 C   0  0  0  0  0  0  0  0  0  0  0  0
   55.6248  157.8019   -4.9852 C   0  0  2  0  0  0  0  0  0  0  0  0
   57.7451  158.6178   -4.2158 C   0  0  0  0  0  0  0  0  0  0  0  0
   53.4174  156.8919   -5.4073 N   0  0  0  0  0  0  0  0  0  0  0  0
   56.3037  158.6671   -4.0250 N   0  0  0  0  0  0  0  0  0  0  0  0
   53.5831  158.7398   -4.0463 O   0  0  0  0  0  0  0  0  0  0  0  0
   60.7932  162.9033   -4.6472 Cl  0  0  0  0  0  0  0  0  0  0  0  0
   59.3725  160.3985   -6.0742 Cl  0  0  0  0  0  0  0  0  0  0  0  0
   58.7916  161.2743   -0.5629 H   0  0  0  0  0  0  0  0  0  0  0  0
   57.6879  159.3405   -1.6336 H   0  0  0  0  0  0  0  0  0  0  0  0
   60.1536  162.8323   -1.9020 H   0  0  0  0  0  0  0  0  0  0  0  0
   55.9851  154.9692   -6.4878 H   0  0  0  0  0  0  0  0  0  0  0  0
   55.0321  154.4799   -5.0831 H   0  0  0  0  0  0  0  0  0  0  0  0
   56.0330  156.0386   -3.7610 H   0  0  0  0  0  0  0  0  0  0  0  0
   57.1830  156.2857   -5.0771 H   0  0  0  0  0  0  0  0  0  0  0  0
   54.3267  156.5251   -7.2220 H   0  0  0  0  0  0  0  0  0  0  0  0
   53.3523  155.2022   -6.5656 H   0  0  0  0  0  0  0  0  0  0  0  0
   55.8015  158.1306   -5.9957 H   0  0  0  0  0  0  0  0  0  0  0  0
   57.9413  158.5665   -5.2923 H   0  0  0  0  0  0  0  0  0  0  0  0
   58.1096  157.6844   -3.7740 H   0  0  0  0  0  0  0  0  0  0  0  0
   52.4469  156.8126   -5.2574 H   0  0  0  0  0  0  0  0  0  0  0  0
   55.9775  159.6228   -4.1529 H   0  0  0  0  0  0  0  0  0  0  0  0
  1  2  1  0  0  0  0
  1  3  2  0  0  0  0
  2  4  2  0  0  0  0
  3  5  1  0  0  0  0
  4  6  1  0  0  0  0
  4 12  1  0  0  0  0
  5  6  2  0  0  0  0
  5 16  1  0  0  0  0
  6 17  1  0  0  0  0
  7 11  1  0  0  0  0
  7 13  1  0  0  0  0
  7 15  2  0  0  0  0
  8  9  1  0  0  0  0
  8 10  1  0  0  0  0
  9 11  1  0  0  0  0
 10 13  1  0  0  0  0
 11 14  1  0  0  0  0
 12 14  1  0  0  0  0
  1 18  1  0  0  0  0
  2 19  1  0  0  0  0
  3 20  1  0  0  0  0
  8 21  1  0  0  0  0
  8 22  1  0  0  0  0
  9 23  1  0  0  0  0
  9 24  1  0  0  0  0
 10 25  1  0  0  0  0
 10 26  1  0  0  0  0
 11 27  1  0  0  0  0
 12 28  1  0  0  0  0
 12 29  1  0  0  0  0
 13 30  1  0  0  0  0
 14 31  1  0  0  0  0
M  END
> <FRED Chemgauss4 score>
-7.240390

$$$$
L-Alanine	P10000028
  -OEChem-05122015073D

 13 12  0     1  0  0  0  0  0999 V2000
   53.6439  156.1079   -2.9932 C   0  0  0  0  0  0  0  0  0  0  0  0
   54.1073  156.1109   -5.5267 C   0  0  0  0  0  0  0  0  0  0  0  0
   53.3894  155.4512   -4.3587 C   0  0  2  0  0  0  0  0  0  0  0  0
   51.9344  155.3949   -4.7023 N   0  3  0  0  0  0  0  0  0  0  0  0
   53.3365  157.3274   -2.8889 O   0  5  0  0  0  0  0  0  0  0  0  0
   54.1459  155.3339   -2.1271 O   0  0  0  0  0  0  0  0  0  0  0  0
   53.8083  157.1603   -5.6251 H   0  0  0  0  0  0  0  0  0  0  0  0
   55.1937  156.0887   -5.3863 H   0  0  0  0  0  0  0  0  0  0  0  0
   53.8787  155.6090   -6.4736 H   0  0  0  0  0  0  0  0  0  0  0  0
   53.7110  154.4053   -4.2894 H   0  0  0  0  0  0  0  0  0  0  0  0
   51.3715  155.7207   -3.9151 H   0  0  0  0  0  0  0  0  0  0  0  0
   51.6603  154.4365   -4.9250 H   0  0  0  0  0  0  0  0  0  0  0  0
   51.7382  155.9868   -5.5111 H   0  0  0  0  0  0  0  0  0  0  0  0
  1  3  1  0  0  0  0
  1  5  1  0  0  0  0
  1  6  2  0  0  0  0
  2  3  1  0  0  0  0
  3  4  1  0  0  0  0
  2  7  1  0  0  0  0
  2  8  1  0  0  0  0
  2  9  1  0  0  0  0
  3 10  1  0  0  0  0
  4 11  1  0  0  0  0
  4 12  1  0  0  0  0
  4 13  1  0  0  0  0
M  CHG  2   4   1   5  -1
M  END
> <FRED Chemgauss4 score>
-7.239545

$$$$
C13544124	P57737090
  -OEChem-05122015073D

 25 25  0     1  0  0  0  0  0999 V2000
   53.0939  155.0360   -4.3486 C   0  0  1  0  0  0  0  0  0  0  0  0
   53.8650  155.5621   -5.5569 C   0  0  2  0  0  0  0  0  0  0  0  0
   53.4446  155.8182   -3.0727 C   0  0  2  0  0  0  0  0  0  0  0  0
   55.3792  155.4582   -5.2801 C   0  0  1  0  0  0  0  0  0  0  0  0
   54.8369  156.4741   -3.1650 C   0  0  1  0  0  0  0  0  0  0  0  0
   56.2273  156.4165   -6.1089 C   0  0  0  0  0  0  0  0  0  0  0  0
   55.3683  156.7942   -1.8422 N   0  0  0  0  0  0  0  0  0  0  0  0
   55.7187  155.6145   -3.8897 O   0  0  0  0  0  0  0  0  0  0  0  0
   51.6898  155.1253   -4.5744 O   0  0  0  0  0  0  0  0  0  0  0  0
   53.4885  156.9163   -5.8120 O   0  0  0  0  0  0  0  0  0  0  0  0
   53.3949  154.8885   -1.9843 O   0  0  0  0  0  0  0  0  0  0  0  0
   55.8192  157.7423   -5.8240 O   0  0  0  0  0  0  0  0  0  0  0  0
   53.3134  153.9643   -4.1938 H   0  0  0  0  0  0  0  0  0  0  0  0
   53.5937  154.9764   -6.4491 H   0  0  0  0  0  0  0  0  0  0  0  0
   52.6794  156.5632   -2.8877 H   0  0  0  0  0  0  0  0  0  0  0  0
   55.7062  154.4163   -5.5836 H   0  0  0  0  0  0  0  0  0  0  0  0
   54.7525  157.3968   -3.7151 H   0  0  0  0  0  0  0  0  0  0  0  0
   56.0849  156.2166   -7.1712 H   0  0  0  0  0  0  0  0  0  0  0  0
   57.2803  156.3009   -5.8513 H   0  0  0  0  0  0  0  0  0  0  0  0
   54.7272  157.1005   -1.1463 H   0  0  0  0  0  0  0  0  0  0  0  0
   56.3539  156.8900   -1.7490 H   0  0  0  0  0  0  0  0  0  0  0  0
   51.5011  154.5854   -5.3575 H   0  0  0  0  0  0  0  0  0  0  0  0
   52.5360  156.9048   -5.9862 H   0  0  0  0  0  0  0  0  0  0  0  0
   52.4904  154.5394   -1.9595 H   0  0  0  0  0  0  0  0  0  0  0  0
   56.3726  158.3331   -6.3627 H   0  0  0  0  0  0  0  0  0  0  0  0
  1  2  1  0  0  0  0
  1  3  1  0  0  0  0
  1  9  1  0  0  0  0
  2  4  1  0  0  0  0
  2 10  1  0  0  0  0
  3  5  1  0  0  0  0
  3 11  1  0  0  0  0
  4  6  1  0  0  0  0
  4  8  1  0  0  0  0
  5  7  1  0  0  0  0
  5  8  1  0  0  0  0
  6 12  1  0  0  0  0
  1 13  1  0  0  0  0
  2 14  1  0  0  0  0
  3 15  1  0  0  0  0
  4 16  1  0  0  0  0
  5 17  1  0  0  0  0
  6 18  1  0  0  0  0
  6 19  1  0  0  0  0
  7 20  1  0  0  0  0
  7 21  1  0  0  0  0
  9 22  1  0  0  0  0
 10 23  1  0  0  0  0
 11 24  1  0  0  0  0
 12 25  1  0  0  0  0
M  END
> <FRED Chemgauss4 score>
-7.234019

$$$$
C90312824	P141186511
  -OEChem-05122015073D

 36 37  0     1  0  0  0  0  0999 V2000
   58.3547  160.3393   -2.8012 C   0  0  0  0  0  0  0  0  0  0  0  0
   57.1024  159.6596   -2.8009 C   0  0  0  0  0  0  0  0  0  0  0  0
   58.5441  161.0745   -3.9506 C   0  0  0  0  0  0  0  0  0  0  0  0
   56.3823  159.9014   -3.9502 C   0  0  0  0  0  0  0  0  0  0  0  0
   55.3652  154.8788   -6.2946 C   0  0  0  0  0  0  0  0  0  0  0  0
   54.2896  155.9006   -5.8759 C   0  0  2  0  0  0  0  0  0  0  0  0
   55.4407  156.8653   -5.5030 C   0  0  1  0  0  0  0  0  0  0  0  0
   56.3130  156.0823   -6.5265 C   0  0  1  0  0  0  0  0  0  0  0  0
   59.7037  161.9114   -4.3275 C   0  0  0  0  0  0  0  0  0  0  0  0
   59.8236  154.9868   -6.7189 C   0  0  0  0  0  0  0  0  0  0  0  0
   58.3849  155.1673   -7.1537 C   0  0  0  0  0  0  0  0  0  0  0  0
   53.6388  155.4371   -4.6582 N   0  0  0  0  0  0  0  0  0  0  0  0
   55.2183  158.3202   -5.7892 N   0  0  0  0  0  0  0  0  0  0  0  0
   54.1731  158.6032   -3.4562 O   0  0  0  0  0  0  0  0  0  0  0  0
   54.1345  160.5179   -5.0861 O   0  0  0  0  0  0  0  0  0  0  0  0
   57.6880  155.8872   -6.1542 O   0  0  0  0  0  0  0  0  0  0  0  0
   57.2156  160.9438   -5.0231 S   0  0  0  0  0  0  0  0  0  0  0  0
   54.8006  159.3589   -4.5234 S   0  0  0  0  0  0  0  0  0  0  0  0
   59.0773  160.2889   -1.9965 H   0  0  0  0  0  0  0  0  0  0  0  0
   56.7492  159.0260   -1.9976 H   0  0  0  0  0  0  0  0  0  0  0  0
   55.7151  154.1929   -5.5129 H   0  0  0  0  0  0  0  0  0  0  0  0
   55.1274  154.2964   -7.1896 H   0  0  0  0  0  0  0  0  0  0  0  0
   53.6232  156.2338   -6.6777 H   0  0  0  0  0  0  0  0  0  0  0  0
   55.8172  156.7537   -4.4757 H   0  0  0  0  0  0  0  0  0  0  0  0
   56.2461  156.4787   -7.5483 H   0  0  0  0  0  0  0  0  0  0  0  0
   60.4547  161.3210   -4.8756 H   0  0  0  0  0  0  0  0  0  0  0  0
   59.4082  162.7591   -4.9672 H   0  0  0  0  0  0  0  0  0  0  0  0
   60.1978  162.3504   -3.4451 H   0  0  0  0  0  0  0  0  0  0  0  0
   60.3136  155.9545   -6.5801 H   0  0  0  0  0  0  0  0  0  0  0  0
   59.8756  154.4263   -5.7797 H   0  0  0  0  0  0  0  0  0  0  0  0
   60.3827  154.4114   -7.4642 H   0  0  0  0  0  0  0  0  0  0  0  0
   57.9006  154.1958   -7.2907 H   0  0  0  0  0  0  0  0  0  0  0  0
   58.3347  155.7282   -8.0918 H   0  0  0  0  0  0  0  0  0  0  0  0
   53.3148  154.4929   -4.6250 H   0  0  0  0  0  0  0  0  0  0  0  0
   53.3564  156.1181   -3.9843 H   0  0  0  0  0  0  0  0  0  0  0  0
   55.7061  158.6675   -6.6083 H   0  0  0  0  0  0  0  0  0  0  0  0
  1  2  1  0  0  0  0
  1  3  2  0  0  0  0
  2  4  2  0  0  0  0
  3  9  1  0  0  0  0
  3 17  1  0  0  0  0
  4 17  1  0  0  0  0
  4 18  1  0  0  0  0
  5  6  1  0  0  0  0
  5  8  1  0  0  0  0
  6  7  1  0  0  0  0
  6 12  1  0  0  0  0
  7  8  1  0  0  0  0
  7 13  1  0  0  0  0
  8 16  1  0  0  0  0
 10 11  1  0  0  0  0
 11 16  1  0  0  0  0
 13 18  1  0  0  0  0
 14 18  2  0  0  0  0
 15 18  2  0  0  0  0
  1 19  1  0  0  0  0
  2 20  1  0  0  0  0
  5 21  1  0  0  0  0
  5 22  1  0  0  0  0
  6 23  1  0  0  0  0
  7 24  1  0  0  0  0
  8 25  1  0  0  0  0
  9 26  1  0  0  0  0
  9 27  1  0  0  0  0
  9 28  1  0  0  0  0
 10 29  1  0  0  0  0
 10 30  1  0  0  0  0
 10 31  1  0  0  0  0
 11 32  1  0  0  0  0
 11 33  1  0  0  0  0
 12 34  1  0  0  0  0
 12 35  1  0  0  0  0
 13 36  1  0  0  0  0
M  END
> <FRED Chemgauss4 score>
-7.229757

$$$$
C44924196	P67720670
  -OEChem-05122015073D

 40 41  0     1  0  0  0  0  0999 V2000
   56.6963  155.7434   -6.4649 C   0  0  0  0  0  0  0  0  0  0  0  0
   55.6001  155.6585   -5.6065 C   0  0  0  0  0  0  0  0  0  0  0  0
   56.6129  157.2992   -4.1508 C   0  0  0  0  0  0  0  0  0  0  0  0
   57.7509  156.6062   -6.1661 C   0  0  0  0  0  0  0  0  0  0  0  0
   57.7092  157.3841   -5.0091 C   0  0  0  0  0  0  0  0  0  0  0  0
   55.5584  156.4364   -4.4495 C   0  0  0  0  0  0  0  0  0  0  0  0
   59.6139  155.2598   -8.8669 C   0  0  0  0  0  0  0  0  0  0  0  0
   60.3869  156.3822   -9.5551 C   0  0  0  0  0  0  0  0  0  0  0  0
   61.1340  155.8609   -7.0410 C   0  0  0  0  0  0  0  0  0  0  0  0
   59.6661  155.5337   -7.3528 C   0  0  2  0  0  0  0  0  0  0  0  0
   59.1751  154.3342   -6.5467 C   0  0  0  0  0  0  0  0  0  0  0  0
   53.5796  158.9309   -4.0512 C   0  0  0  0  0  0  0  0  0  0  0  0
   58.7664  158.2644   -4.6876 N   0  0  0  0  0  0  0  0  0  0  0  0
   58.8265  156.6746   -7.0290 N   0  0  0  0  0  0  0  0  0  0  0  0
   53.1384  157.5298   -3.9977 N   0  0  0  0  0  0  0  0  0  0  0  0
   61.7474  158.1660   -8.1776 O   0  0  0  0  0  0  0  0  0  0  0  0
   62.9339  156.0649   -8.9592 O   0  0  0  0  0  0  0  0  0  0  0  0
   53.5555  155.0279   -3.5468 O   0  0  0  0  0  0  0  0  0  0  0  0
   54.6263  156.7410   -2.0491 O   0  0  0  0  0  0  0  0  0  0  0  0
   61.7546  156.7472   -8.4683 S   0  0  0  0  0  0  0  0  0  0  0  0
   54.1856  156.3308   -3.3758 S   0  0  0  0  0  0  0  0  0  0  0  0
   56.7178  155.1320   -7.3635 H   0  0  0  0  0  0  0  0  0  0  0  0
   54.7844  154.9825   -5.8485 H   0  0  0  0  0  0  0  0  0  0  0  0
   56.5796  157.9055   -3.2482 H   0  0  0  0  0  0  0  0  0  0  0  0
   58.5881  155.2063   -9.2476 H   0  0  0  0  0  0  0  0  0  0  0  0
   60.1005  154.3015   -9.0901 H   0  0  0  0  0  0  0  0  0  0  0  0
   60.7661  156.0826  -10.5346 H   0  0  0  0  0  0  0  0  0  0  0  0
   59.7811  157.2864   -9.6562 H   0  0  0  0  0  0  0  0  0  0  0  0
   61.2622  156.4841   -6.1518 H   0  0  0  0  0  0  0  0  0  0  0  0
   61.7379  154.9525   -6.9452 H   0  0  0  0  0  0  0  0  0  0  0  0
   59.2247  154.5600   -5.4831 H   0  0  0  0  0  0  0  0  0  0  0  0
   59.7999  153.4682   -6.7577 H   0  0  0  0  0  0  0  0  0  0  0  0
   58.1454  154.1062   -6.8161 H   0  0  0  0  0  0  0  0  0  0  0  0
   54.6699  158.9795   -4.1115 H   0  0  0  0  0  0  0  0  0  0  0  0
   53.2525  159.4647   -3.1547 H   0  0  0  0  0  0  0  0  0  0  0  0
   53.1561  159.4272   -4.9286 H   0  0  0  0  0  0  0  0  0  0  0  0
   58.6870  158.8430   -3.8774 H   0  0  0  0  0  0  0  0  0  0  0  0
   59.5290  158.3602   -5.3255 H   0  0  0  0  0  0  0  0  0  0  0  0
   59.0507  157.5588   -7.4619 H   0  0  0  0  0  0  0  0  0  0  0  0
   52.1240  157.3787   -3.9394 H   0  0  0  0  0  0  0  0  0  0  0  0
  1  2  2  0  0  0  0
  1  4  1  0  0  0  0
  2  6  1  0  0  0  0
  3  5  1  0  0  0  0
  3  6  2  0  0  0  0
  4  5  2  0  0  0  0
  4 14  1  0  0  0  0
  5 13  1  0  0  0  0
  6 21  1  0  0  0  0
  7  8  1  0  0  0  0
  7 10  1  0  0  0  0
  8 20  1  0  0  0  0
  9 10  1  0  0  0  0
  9 20  1  0  0  0  0
 10 11  1  0  0  0  0
 10 14  1  0  0  0  0
 12 15  1  0  0  0  0
 15 21  1  0  0  0  0
 16 20  2  0  0  0  0
 17 20  2  0  0  0  0
 18 21  2  0  0  0  0
 19 21  2  0  0  0  0
  1 22  1  0  0  0  0
  2 23  1  0  0  0  0
  3 24  1  0  0  0  0
  7 25  1  0  0  0  0
  7 26  1  0  0  0  0
  8 27  1  0  0  0  0
  8 28  1  0  0  0  0
  9 29  1  0  0  0  0
  9 30  1  0  0  0  0
 11 31  1  0  0  0  0
 11 32  1  0  0  0  0
 11 33  1  0  0  0  0
 12 34  1  0  0  0  0
 12 35  1  0  0  0  0
 12 36  1  0  0  0  0
 13 37  1  0  0  0  0
 13 38  1  0  0  0  0
 14 39  1  0  0  0  0
 15 40  1  0  0  0  0
M  END
> <FRED Chemgauss4 score>
-7.224948

$$$$
C90311313	P141184916
  -OEChem-05122015073D

 39 40  0     1  0  0  0  0  0999 V2000
   55.2560  157.4870   -2.9552 C   0  0  0  0  0  0  0  0  0  0  0  0
   58.0505  159.7411   -1.7376 C   0  0  0  0  0  0  0  0  0  0  0  0
   57.3932  159.7948   -0.3598 C   0  0  0  0  0  0  0  0  0  0  0  0
   57.4514  158.6314   -2.5880 C   0  0  0  0  0  0  0  0  0  0  0  0
   54.7806  154.3896   -6.2947 C   0  0  0  0  0  0  0  0  0  0  0  0
   56.0258  159.1207   -0.3405 C   0  0  0  0  0  0  0  0  0  0  0  0
   55.9344  158.7987   -2.7031 C   0  0  2  0  0  0  0  0  0  0  0  0
   54.1241  155.6499   -5.6950 C   0  0  2  0  0  0  0  0  0  0  0  0
   55.1485  155.5617   -4.5414 C   0  0  1  0  0  0  0  0  0  0  0  0
   56.0651  154.7733   -5.5167 C   0  0  2  0  0  0  0  0  0  0  0  0
   58.8073  155.5395   -7.8547 C   0  0  0  0  0  0  0  0  0  0  0  0
   57.8041  154.6973   -7.0957 C   0  0  0  0  0  0  0  0  0  0  0  0
   52.8028  155.3021   -5.1897 N   0  0  0  0  0  0  0  0  0  0  0  0
   55.6753  156.8488   -4.1069 N   0  0  0  0  0  0  0  0  0  0  0  0
   54.4140  157.0802   -2.1631 O   0  0  0  0  0  0  0  0  0  0  0  0
   55.3250  159.3799   -1.5523 O   0  0  0  0  0  0  0  0  0  0  0  0
   57.0356  155.5389   -6.2592 O   0  0  0  0  0  0  0  0  0  0  0  0
   57.9090  160.7070   -2.2433 H   0  0  0  0  0  0  0  0  0  0  0  0
   59.1338  159.5953   -1.6309 H   0  0  0  0  0  0  0  0  0  0  0  0
   58.0544  159.2835    0.3610 H   0  0  0  0  0  0  0  0  0  0  0  0
   57.3066  160.8404   -0.0219 H   0  0  0  0  0  0  0  0  0  0  0  0
   57.9115  158.6186   -3.5827 H   0  0  0  0  0  0  0  0  0  0  0  0
   57.6826  157.6664   -2.1175 H   0  0  0  0  0  0  0  0  0  0  0  0
   54.3628  153.4248   -5.9810 H   0  0  0  0  0  0  0  0  0  0  0  0
   54.8721  154.3911   -7.3850 H   0  0  0  0  0  0  0  0  0  0  0  0
   56.1479  158.0377   -0.2481 H   0  0  0  0  0  0  0  0  0  0  0  0
   55.4260  159.4623    0.5104 H   0  0  0  0  0  0  0  0  0  0  0  0
   55.6933  159.4561   -3.5969 H   0  0  0  0  0  0  0  0  0  0  0  0
   54.1748  156.5449   -6.3233 H   0  0  0  0  0  0  0  0  0  0  0  0
   54.8435  154.9575   -3.6779 H   0  0  0  0  0  0  0  0  0  0  0  0
   56.5585  153.9132   -5.0498 H   0  0  0  0  0  0  0  0  0  0  0  0
   58.3014  156.2825   -8.4774 H   0  0  0  0  0  0  0  0  0  0  0  0
   59.4793  156.0570   -7.1622 H   0  0  0  0  0  0  0  0  0  0  0  0
   59.4338  154.9096   -8.4950 H   0  0  0  0  0  0  0  0  0  0  0  0
   58.3166  153.9563   -6.4750 H   0  0  0  0  0  0  0  0  0  0  0  0
   57.1331  154.1816   -7.7891 H   0  0  0  0  0  0  0  0  0  0  0  0
   52.1919  154.7808   -5.7833 H   0  0  0  0  0  0  0  0  0  0  0  0
   52.4765  155.7607   -4.3647 H   0  0  0  0  0  0  0  0  0  0  0  0
   56.3846  157.2985   -4.6778 H   0  0  0  0  0  0  0  0  0  0  0  0
  1  7  1  0  0  0  0
  1 14  1  0  0  0  0
  1 15  2  0  0  0  0
  2  3  1  0  0  0  0
  2  4  1  0  0  0  0
  3  6  1  0  0  0  0
  4  7  1  0  0  0  0
  5  8  1  0  0  0  0
  5 10  1  0  0  0  0
  6 16  1  0  0  0  0
  7 16  1  0  0  0  0
  8  9  1  0  0  0  0
  8 13  1  0  0  0  0
  9 10  1  0  0  0  0
  9 14  1  0  0  0  0
 10 17  1  0  0  0  0
 11 12  1  0  0  0  0
 12 17  1  0  0  0  0
  2 18  1  0  0  0  0
  2 19  1  0  0  0  0
  3 20  1  0  0  0  0
  3 21  1  0  0  0  0
  4 22  1  0  0  0  0
  4 23  1  0  0  0  0
  5 24  1  0  0  0  0
  5 25  1  0  0  0  0
  6 26  1  0  0  0  0
  6 27  1  0  0  0  0
  7 28  1  0  0  0  0
  8 29  1  0  0  0  0
  9 30  1  0  0  0  0
 10 31  1  0  0  0  0
 11 32  1  0  0  0  0
 11 33  1  0  0  0  0
 11 34  1  0  0  0  0
 12 35  1  0  0  0  0
 12 36  1  0  0  0  0
 13 37  1  0  0  0  0
 13 38  1  0  0  0  0
 14 39  1  0  0  0  0
M  END
> <FRED Chemgauss4 score>
-7.220718

$$$$
C63135618	P96947687
  -OEChem-05122015073D

 39 41  0     1  0  0  0  0  0999 V2000
   58.0359  155.8743   -6.8407 C   0  0  0  0  0  0  0  0  0  0  0  0
   58.0879  154.5712   -7.3464 C   0  0  0  0  0  0  0  0  0  0  0  0
   56.4570  153.7943   -5.7140 C   0  0  0  0  0  0  0  0  0  0  0  0
   60.5965  161.8466   -6.4768 C   0  0  0  0  0  0  0  0  0  0  0  0
   56.3924  155.0977   -5.1932 C   0  0  0  0  0  0  0  0  0  0  0  0
   57.1763  156.0963   -5.7644 C   0  0  0  0  0  0  0  0  0  0  0  0
   57.3133  153.5481   -6.7946 C   0  0  0  0  0  0  0  0  0  0  0  0
   60.2100  161.9997   -5.1618 C   0  0  0  0  0  0  0  0  0  0  0  0
   55.9616  156.8719   -4.0858 C   0  0  0  0  0  0  0  0  0  0  0  0
   59.5587  159.9265   -5.4576 C   0  0  0  0  0  0  0  0  0  0  0  0
   60.3794  163.2212   -4.3500 C   0  0  0  0  0  0  0  0  0  0  0  0
   56.2068  157.9127   -1.8043 C   0  0  0  0  0  0  0  0  0  0  0  0
   58.9737  158.5624   -5.1874 C   0  0  0  0  0  0  0  0  0  0  0  0
   57.4425  158.5361   -5.2408 C   0  0  0  0  0  0  0  0  0  0  0  0
   55.4193  157.8500   -3.1205 C   0  0  2  0  0  0  0  0  0  0  0  0
   55.6446  155.5982   -4.1522 N   0  0  0  0  0  0  0  0  0  0  0  0
   59.6144  160.8999   -4.5758 N   0  0  0  0  0  0  0  0  0  0  0  0
   56.8805  157.2201   -5.0363 N   0  0  0  0  0  0  0  0  0  0  0  0
   57.3937  152.2443   -7.3336 N   0  0  0  0  0  0  0  0  0  0  0  0
   54.0610  157.5083   -2.7996 O   0  0  0  0  0  0  0  0  0  0  0  0
   60.2048  160.2647   -7.0111 S   0  0  0  0  0  0  0  0  0  0  0  0
   58.6374  156.6677   -7.2697 H   0  0  0  0  0  0  0  0  0  0  0  0
   58.7481  154.3627   -8.1860 H   0  0  0  0  0  0  0  0  0  0  0  0
   55.8543  152.9998   -5.2842 H   0  0  0  0  0  0  0  0  0  0  0  0
   61.0752  162.5622   -7.1304 H   0  0  0  0  0  0  0  0  0  0  0  0
   59.5030  163.8834   -4.4415 H   0  0  0  0  0  0  0  0  0  0  0  0
   60.5154  162.9908   -3.2796 H   0  0  0  0  0  0  0  0  0  0  0  0
   61.2694  163.7988   -4.6529 H   0  0  0  0  0  0  0  0  0  0  0  0
   56.2789  156.9215   -1.3455 H   0  0  0  0  0  0  0  0  0  0  0  0
   55.7272  158.5906   -1.0892 H   0  0  0  0  0  0  0  0  0  0  0  0
   57.2199  158.2980   -1.9638 H   0  0  0  0  0  0  0  0  0  0  0  0
   59.3279  158.1929   -4.2167 H   0  0  0  0  0  0  0  0  0  0  0  0
   59.3700  157.8625   -5.9344 H   0  0  0  0  0  0  0  0  0  0  0  0
   57.0034  159.2133   -4.4985 H   0  0  0  0  0  0  0  0  0  0  0  0
   57.0978  158.8771   -6.2249 H   0  0  0  0  0  0  0  0  0  0  0  0
   55.3831  158.8792   -3.5310 H   0  0  0  0  0  0  0  0  0  0  0  0
   57.9698  152.0846   -8.1335 H   0  0  0  0  0  0  0  0  0  0  0  0
   56.8020  151.5296   -6.9642 H   0  0  0  0  0  0  0  0  0  0  0  0
   53.7617  158.1774   -2.1697 H   0  0  0  0  0  0  0  0  0  0  0  0
  1  2  2  0  0  0  0
  1  6  1  0  0  0  0
  2  7  1  0  0  0  0
  3  5  1  0  0  0  0
  3  7  2  0  0  0  0
  4  8  2  0  0  0  0
  4 21  1  0  0  0  0
  5  6  2  0  0  0  0
  5 16  1  0  0  0  0
  6 18  1  0  0  0  0
  7 19  1  0  0  0  0
  8 11  1  0  0  0  0
  8 17  1  0  0  0  0
  9 15  1  0  0  0  0
  9 16  2  0  0  0  0
  9 18  1  0  0  0  0
 10 13  1  0  0  0  0
 10 17  2  0  0  0  0
 10 21  1  0  0  0  0
 12 15  1  0  0  0  0
 13 14  1  0  0  0  0
 14 18  1  0  0  0  0
 15 20  1  0  0  0  0
  1 22  1  0  0  0  0
  2 23  1  0  0  0  0
  3 24  1  0  0  0  0
  4 25  1  0  0  0  0
 11 26  1  0  0  0  0
 11 27  1  0  0  0  0
 11 28  1  0  0  0  0
 12 29  1  0  0  0  0
 12 30  1  0  0  0  0
 12 31  1  0  0  0  0
 13 32  1  0  0  0  0
 13 33  1  0  0  0  0
 14 34  1  0  0  0  0
 14 35  1  0  0  0  0
 15 36  1  0  0  0  0
 19 37  1  0  0  0  0
 19 38  1  0  0  0  0
 20 39  1  0  0  0  0
M  END
> <FRED Chemgauss4 score>
-7.216151

$$$$
C86456111	P135359542
  -OEChem-05122015073D

 29 29  0     0  0  0  0  0  0999 V2000
   56.0496  155.4241   -5.9470 C   0  0  0  0  0  0  0  0  0  0  0  0
   54.9881  156.1223   -5.3408 C   0  0  0  0  0  0  0  0  0  0  0  0
   55.4959  157.3750   -5.0971 C   0  0  0  0  0  0  0  0  0  0  0  0
   56.6488  159.6065    0.9190 C   0  0  0  0  0  0  0  0  0  0  0  0
   53.6405  155.6029   -5.0427 C   0  0  0  0  0  0  0  0  0  0  0  0
   56.9424  159.6123   -1.4127 C   0  0  0  0  0  0  0  0  0  0  0  0
   56.6324  158.8741   -2.7004 C   0  0  0  0  0  0  0  0  0  0  0  0
   57.1487  156.1712   -6.0804 N   0  0  0  0  0  0  0  0  0  0  0  0
   54.8727  158.4320   -4.5218 N   0  5  0  0  0  0  0  0  0  0  0  0
   56.7805  157.3520   -5.5547 N   0  0  0  0  0  0  0  0  0  0  0  0
   52.6542  155.8013   -6.1496 N   0  3  0  0  0  0  0  0  0  0  0  0
   54.5192  157.5732   -2.1108 O   0  0  0  0  0  0  0  0  0  0  0  0
   54.3507  160.0023   -2.5375 O   0  0  0  0  0  0  0  0  0  0  0  0
   56.3866  158.9240   -0.2995 O   0  0  0  0  0  0  0  0  0  0  0  0
   54.8924  158.7085   -2.9558 S   0  0  0  0  0  0  0  0  0  0  0  0
   56.0705  154.4020   -6.2979 H   0  0  0  0  0  0  0  0  0  0  0  0
   56.2086  159.0511    1.7507 H   0  0  0  0  0  0  0  0  0  0  0  0
   56.2237  160.6123    0.8730 H   0  0  0  0  0  0  0  0  0  0  0  0
   57.7298  159.6762    1.0619 H   0  0  0  0  0  0  0  0  0  0  0  0
   53.6425  154.5168   -4.8404 H   0  0  0  0  0  0  0  0  0  0  0  0
   53.1901  156.0845   -4.1561 H   0  0  0  0  0  0  0  0  0  0  0  0
   58.0242  159.6780   -1.2607 H   0  0  0  0  0  0  0  0  0  0  0  0
   56.5353  160.6280   -1.4236 H   0  0  0  0  0  0  0  0  0  0  0  0
   57.0429  157.8603   -2.6951 H   0  0  0  0  0  0  0  0  0  0  0  0
   57.0217  159.4203   -3.5642 H   0  0  0  0  0  0  0  0  0  0  0  0
   57.4597  158.1024   -5.5389 H   0  0  0  0  0  0  0  0  0  0  0  0
   52.9748  156.5352   -6.7832 H   0  0  0  0  0  0  0  0  0  0  0  0
   51.7455  156.0725   -5.7698 H   0  0  0  0  0  0  0  0  0  0  0  0
   52.5403  154.9373   -6.6822 H   0  0  0  0  0  0  0  0  0  0  0  0
  1  2  1  0  0  0  0
  1  8  2  0  0  0  0
  2  3  2  0  0  0  0
  2  5  1  0  0  0  0
  3  9  1  0  0  0  0
  3 10  1  0  0  0  0
  4 14  1  0  0  0  0
  5 11  1  0  0  0  0
  6  7  1  0  0  0  0
  6 14  1  0  0  0  0
  7 15  1  0  0  0  0
  8 10  1  0  0  0  0
  9 15  1  0  0  0  0
 12 15  2  0  0  0  0
 13 15  2  0  0  0  0
  1 16  1  0  0  0  0
  4 17  1  0  0  0  0
  4 18  1  0  0  0  0
  4 19  1  0  0  0  0
  5 20  1  0  0  0  0
  5 21  1  0  0  0  0
  6 22  1  0  0  0  0
  6 23  1  0  0  0  0
  7 24  1  0  0  0  0
  7 25  1  0  0  0  0
 10 26  1  0  0  0  0
 11 27  1  0  0  0  0
 11 28  1  0  0  0  0
 11 29  1  0  0  0  0
M  CHG  2   9  -1  11   1
M  END
> <FRED Chemgauss4 score>
-7.214230

$$$$
C87669204	P137137924
  -OEChem-05122015073D

 29 29  0     1  0  0  0  0  0999 V2000
   59.4165  157.5988   -7.3961 C   0  0  0  0  0  0  0  0  0  0  0  0
   58.9400  157.6930   -5.9535 C   0  0  0  0  0  0  0  0  0  0  0  0
   59.9253  156.1820   -7.5923 C   0  0  0  0  0  0  0  0  0  0  0  0
   58.0355  156.4910   -5.6901 C   0  0  1  0  0  0  0  0  0  0  0  0
   56.6005  156.7139   -6.1525 C   0  0  0  0  0  0  0  0  0  0  0  0
   54.3318  156.2522   -5.5199 C   0  0  0  0  0  0  0  0  0  0  0  0
   54.0334  155.8580   -3.0166 C   0  0  0  0  0  0  0  0  0  0  0  0
   53.5096  155.5776   -4.4218 C   0  0  1  0  0  0  0  0  0  0  0  0
   55.7261  155.7954   -5.4983 N   0  0  0  0  0  0  0  0  0  0  0  0
   53.1865  155.2102   -2.0721 O   0  0  0  0  0  0  0  0  0  0  0  0
   52.1544  156.0223   -4.4933 O   0  0  0  0  0  0  0  0  0  0  0  0
   58.7916  155.1315   -6.6426 S   0  0  0  0  0  0  0  0  0  0  0  0
   58.6077  157.8268   -8.0988 H   0  0  0  0  0  0  0  0  0  0  0  0
   60.2199  158.3246   -7.5787 H   0  0  0  0  0  0  0  0  0  0  0  0
   59.7907  157.7030   -5.2566 H   0  0  0  0  0  0  0  0  0  0  0  0
   58.3977  158.6404   -5.8003 H   0  0  0  0  0  0  0  0  0  0  0  0
   59.8763  155.8887   -8.6468 H   0  0  0  0  0  0  0  0  0  0  0  0
   60.9564  156.0651   -7.2444 H   0  0  0  0  0  0  0  0  0  0  0  0
   58.0519  156.2145   -4.6401 H   0  0  0  0  0  0  0  0  0  0  0  0
   56.5434  156.5541   -7.2238 H   0  0  0  0  0  0  0  0  0  0  0  0
   56.2965  157.7256   -5.9078 H   0  0  0  0  0  0  0  0  0  0  0  0
   53.9094  156.0154   -6.5022 H   0  0  0  0  0  0  0  0  0  0  0  0
   54.3079  157.3401   -5.3975 H   0  0  0  0  0  0  0  0  0  0  0  0
   54.0244  156.9307   -2.8002 H   0  0  0  0  0  0  0  0  0  0  0  0
   55.0449  155.4628   -2.8786 H   0  0  0  0  0  0  0  0  0  0  0  0
   53.4940  154.4949   -4.5944 H   0  0  0  0  0  0  0  0  0  0  0  0
   55.7620  154.8713   -5.9513 H   0  0  0  0  0  0  0  0  0  0  0  0
   53.5477  155.4091   -1.1941 H   0  0  0  0  0  0  0  0  0  0  0  0
   51.6797  155.5680   -3.7810 H   0  0  0  0  0  0  0  0  0  0  0  0
  1  2  1  0  0  0  0
  1  3  1  0  0  0  0
  2  4  1  0  0  0  0
  3 12  1  0  0  0  0
  4  5  1  0  0  0  0
  4 12  1  0  0  0  0
  5  9  1  0  0  0  0
  6  8  1  0  0  0  0
  6  9  1  0  0  0  0
  7  8  1  0  0  0  0
  7 10  1  0  0  0  0
  8 11  1  0  0  0  0
  1 13  1  0  0  0  0
  1 14  1  0  0  0  0
  2 15  1  0  0  0  0
  2 16  1  0  0  0  0
  3 17  1  0  0  0  0
  3 18  1  0  0  0  0
  4 19  1  0  0  0  0
  5 20  1  0  0  0  0
  5 21  1  0  0  0  0
  6 22  1  0  0  0  0
  6 23  1  0  0  0  0
  7 24  1  0  0  0  0
  7 25  1  0  0  0  0
  8 26  1  0  0  0  0
  9 27  1  0  0  0  0
 10 28  1  0  0  0  0
 11 29  1  0  0  0  0
M  END
> <FRED Chemgauss4 score>
-7.211640

$$$$
C97905000	P155397495
  -OEChem-05122015073D

 33 35  0     0  0  0  0  0  0999 V2000
   58.6920  160.0793   -3.0495 C   0  0  0  0  0  0  0  0  0  0  0  0
   57.6507  159.2191   -2.7056 C   0  0  0  0  0  0  0  0  0  0  0  0
   59.4173  157.2573   -8.2624 C   0  0  0  0  0  0  0  0  0  0  0  0
   58.4111  155.4274   -7.0476 C   0  0  0  0  0  0  0  0  0  0  0  0
   60.6016  155.1641   -8.0321 C   0  0  0  0  0  0  0  0  0  0  0  0
   59.1128  160.1233   -4.3718 C   0  0  0  0  0  0  0  0  0  0  0  0
   55.9618  157.0608   -5.1201 C   0  0  0  0  0  0  0  0  0  0  0  0
   57.0813  158.4387   -3.7247 C   0  0  0  0  0  0  0  0  0  0  0  0
   58.3517  156.7351   -7.5293 C   0  0  0  0  0  0  0  0  0  0  0  0
   56.0439  157.4725   -3.8073 C   0  0  0  0  0  0  0  0  0  0  0  0
   60.5422  156.4718   -8.5139 C   0  0  0  0  0  0  0  0  0  0  0  0
   59.5360  154.6419   -7.2990 C   0  0  0  0  0  0  0  0  0  0  0  0
   57.6010  158.5827   -5.0079 C   0  0  0  0  0  0  0  0  0  0  0  0
   57.1383  157.5829   -7.2583 C   0  0  0  0  0  0  0  0  0  0  0  0
   55.2008  156.9897   -2.6954 C   0  0  0  0  0  0  0  0  0  0  0  0
   58.6025  159.3962   -5.3928 N   0  0  0  0  0  0  0  0  0  0  0  0
   56.9108  157.7402   -5.8390 N   0  0  0  0  0  0  0  0  0  0  0  0
   53.8633  157.5403   -2.7234 N   0  0  0  0  0  0  0  0  0  0  0  0
   61.5653  156.9734   -9.2179 F   0  0  0  0  0  0  0  0  0  0  0  0
   59.5933  153.3863   -6.8362 F   0  0  0  0  0  0  0  0  0  0  0  0
   59.1638  160.7023   -2.2972 H   0  0  0  0  0  0  0  0  0  0  0  0
   57.2979  159.1606   -1.6810 H   0  0  0  0  0  0  0  0  0  0  0  0
   59.3804  158.2748   -8.6421 H   0  0  0  0  0  0  0  0  0  0  0  0
   57.5860  155.0123   -6.4750 H   0  0  0  0  0  0  0  0  0  0  0  0
   61.4775  154.5533   -8.2273 H   0  0  0  0  0  0  0  0  0  0  0  0
   59.9234  160.7885   -4.6575 H   0  0  0  0  0  0  0  0  0  0  0  0
   55.3096  156.3434   -5.6006 H   0  0  0  0  0  0  0  0  0  0  0  0
   57.2453  158.5805   -7.7014 H   0  0  0  0  0  0  0  0  0  0  0  0
   56.2385  157.1402   -7.7026 H   0  0  0  0  0  0  0  0  0  0  0  0
   55.0935  155.8906   -2.7083 H   0  0  0  0  0  0  0  0  0  0  0  0
   55.6262  157.2426   -1.7082 H   0  0  0  0  0  0  0  0  0  0  0  0
   53.3563  157.6208   -1.8612 H   0  0  0  0  0  0  0  0  0  0  0  0
   53.3997  157.6371   -3.6081 H   0  0  0  0  0  0  0  0  0  0  0  0
  1  2  1  0  0  0  0
  1  6  2  0  0  0  0
  2  8  2  0  0  0  0
  3  9  1  0  0  0  0
  3 11  2  0  0  0  0
  4  9  2  0  0  0  0
  4 12  1  0  0  0  0
  5 11  1  0  0  0  0
  5 12  2  0  0  0  0
  6 16  1  0  0  0  0
  7 10  2  0  0  0  0
  7 17  1  0  0  0  0
  8 10  1  0  0  0  0
  8 13  1  0  0  0  0
  9 14  1  0  0  0  0
 10 15  1  0  0  0  0
 11 19  1  0  0  0  0
 12 20  1  0  0  0  0
 13 16  2  0  0  0  0
 13 17  1  0  0  0  0
 14 17  1  0  0  0  0
 15 18  1  0  0  0  0
  1 21  1  0  0  0  0
  2 22  1  0  0  0  0
  3 23  1  0  0  0  0
  4 24  1  0  0  0  0
  5 25  1  0  0  0  0
  6 26  1  0  0  0  0
  7 27  1  0  0  0  0
 14 28  1  0  0  0  0
 14 29  1  0  0  0  0
 15 30  1  0  0  0  0
 15 31  1  0  0  0  0
 18 32  1  0  0  0  0
 18 33  1  0  0  0  0
M  END
> <FRED Chemgauss4 score>
-7.210901

$$$$
C95836526	P150813888
  -OEChem-05122015073D

 27 27  0     1  0  0  0  0  0999 V2000
   55.6014  154.2715   -6.0946 C   0  0  0  0  0  0  0  0  0  0  0  0
   56.9494  154.3581   -6.4244 C   0  0  0  0  0  0  0  0  0  0  0  0
   55.7333  156.4698   -5.1966 C   0  0  0  0  0  0  0  0  0  0  0  0
   54.9743  155.3431   -5.4688 C   0  0  0  0  0  0  0  0  0  0  0  0
   57.6199  155.5291   -6.1097 C   0  0  0  0  0  0  0  0  0  0  0  0
   60.5483  155.6662   -8.2024 C   0  0  0  0  0  0  0  0  0  0  0  0
   59.3981  154.9162   -7.5651 C   0  0  0  0  0  0  0  0  0  0  0  0
   53.2782  155.4569   -3.5937 C   0  0  0  0  0  0  0  0  0  0  0  0
   53.5339  155.2812   -5.1034 C   0  0  1  0  0  0  0  0  0  0  0  0
   57.0446  156.5909   -5.5020 N   0  0  0  0  0  0  0  0  0  0  0  0
   52.7460  156.2539   -5.8487 N   0  0  0  0  0  0  0  0  0  0  0  0
   53.2948  156.8392   -3.2521 O   0  0  0  0  0  0  0  0  0  0  0  0
   58.9490  155.6385   -6.4247 O   0  0  0  0  0  0  0  0  0  0  0  0
   55.0479  153.3662   -6.3286 H   0  0  0  0  0  0  0  0  0  0  0  0
   57.4530  153.5310   -6.9128 H   0  0  0  0  0  0  0  0  0  0  0  0
   55.2981  157.3372   -4.7098 H   0  0  0  0  0  0  0  0  0  0  0  0
   60.2341  156.6635   -8.5226 H   0  0  0  0  0  0  0  0  0  0  0  0
   61.3808  155.7669   -7.4984 H   0  0  0  0  0  0  0  0  0  0  0  0
   60.9306  155.1204   -9.0713 H   0  0  0  0  0  0  0  0  0  0  0  0
   59.7190  153.9197   -7.2471 H   0  0  0  0  0  0  0  0  0  0  0  0
   58.5669  154.8172   -8.2695 H   0  0  0  0  0  0  0  0  0  0  0  0
   52.2921  155.0614   -3.3265 H   0  0  0  0  0  0  0  0  0  0  0  0
   54.0367  154.9448   -2.9916 H   0  0  0  0  0  0  0  0  0  0  0  0
   53.0970  154.3083   -5.3979 H   0  0  0  0  0  0  0  0  0  0  0  0
   51.8706  156.5453   -5.4667 H   0  0  0  0  0  0  0  0  0  0  0  0
   52.9997  156.4408   -6.7964 H   0  0  0  0  0  0  0  0  0  0  0  0
   53.1298  156.8910   -2.2975 H   0  0  0  0  0  0  0  0  0  0  0  0
  1  2  2  0  0  0  0
  1  4  1  0  0  0  0
  2  5  1  0  0  0  0
  3  4  2  0  0  0  0
  3 10  1  0  0  0  0
  4  9  1  0  0  0  0
  5 10  2  0  0  0  0
  5 13  1  0  0  0  0
  6  7  1  0  0  0  0
  7 13  1  0  0  0  0
  8  9  1  0  0  0  0
  8 12  1  0  0  0  0
  9 11  1  0  0  0  0
  1 14  1  0  0  0  0
  2 15  1  0  0  0  0
  3 16  1  0  0  0  0
  6 17  1  0  0  0  0
  6 18  1  0  0  0  0
  6 19  1  0  0  0  0
  7 20  1  0  0  0  0
  7 21  1  0  0  0  0
  8 22  1  0  0  0  0
  8 23  1  0  0  0  0
  9 24  1  0  0  0  0
 11 25  1  0  0  0  0
 11 26  1  0  0  0  0
 12 27  1  0  0  0  0
M  END
> <FRED Chemgauss4 score>
-7.206103

$$$$
C89752394	P140315060
  -OEChem-05122015073D

 35 36  0     1  0  0  0  0  0999 V2000
   60.6345  161.3503   -5.6037 C   0  0  0  0  0  0  0  0  0  0  0  0
   58.8982  162.8073   -4.7673 C   0  0  0  0  0  0  0  0  0  0  0  0
   61.6042  162.2063   -5.0819 C   0  0  0  0  0  0  0  0  0  0  0  0
   59.8680  163.6633   -4.2454 C   0  0  0  0  0  0  0  0  0  0  0  0
   59.2814  161.6508   -5.4465 C   0  0  0  0  0  0  0  0  0  0  0  0
   61.2210  163.3628   -4.4027 C   0  0  0  0  0  0  0  0  0  0  0  0
   54.0709  156.1238   -5.9102 C   0  0  0  0  0  0  0  0  0  0  0  0
   54.4884  158.1732   -4.5286 C   0  0  0  0  0  0  0  0  0  0  0  0
   55.5520  155.8392   -5.9274 C   0  0  0  0  0  0  0  0  0  0  0  0
   56.2306  156.3433   -4.6661 C   0  0  0  0  0  0  0  0  0  0  0  0
   55.9583  157.8220   -4.4392 C   0  0  1  0  0  0  0  0  0  0  0  0
   58.2395  160.7325   -6.0068 C   0  0  0  0  0  0  0  0  0  0  0  0
   53.6887  157.2702   -5.2223 N   0  0  0  0  0  0  0  0  0  0  0  0
   62.2012  164.2276   -3.8733 N   0  0  0  0  0  0  0  0  0  0  0  0
   56.6378  158.6777   -5.3746 N   0  0  0  0  0  0  0  0  0  0  0  0
   53.2735  155.4141   -6.5227 O   0  0  0  0  0  0  0  0  0  0  0  0
   54.0534  159.2406   -4.0936 O   0  0  0  0  0  0  0  0  0  0  0  0
   59.2059  158.3694   -5.4303 O   0  0  0  0  0  0  0  0  0  0  0  0
   58.1497  159.7394   -3.5962 O   0  0  0  0  0  0  0  0  0  0  0  0
   58.1800  159.2865   -4.9736 S   0  0  0  0  0  0  0  0  0  0  0  0
   60.9420  160.4520   -6.1323 H   0  0  0  0  0  0  0  0  0  0  0  0
   57.8466  163.0504   -4.6414 H   0  0  0  0  0  0  0  0  0  0  0  0
   62.6558  161.9635   -5.2113 H   0  0  0  0  0  0  0  0  0  0  0  0
   59.5580  164.5621   -3.7186 H   0  0  0  0  0  0  0  0  0  0  0  0
   55.6905  154.7577   -6.0387 H   0  0  0  0  0  0  0  0  0  0  0  0
   55.9915  156.3310   -6.8023 H   0  0  0  0  0  0  0  0  0  0  0  0
   55.8861  155.7545   -3.7964 H   0  0  0  0  0  0  0  0  0  0  0  0
   57.3207  156.1625   -4.7374 H   0  0  0  0  0  0  0  0  0  0  0  0
   56.2830  158.1165   -3.3996 H   0  0  0  0  0  0  0  0  0  0  0  0
   58.4787  160.4141   -7.0253 H   0  0  0  0  0  0  0  0  0  0  0  0
   57.2467  161.1914   -6.0080 H   0  0  0  0  0  0  0  0  0  0  0  0
   52.6930  157.4812   -5.2350 H   0  0  0  0  0  0  0  0  0  0  0  0
   63.1662  163.9768   -3.9502 H   0  0  0  0  0  0  0  0  0  0  0  0
   61.9129  165.0283   -3.3481 H   0  0  0  0  0  0  0  0  0  0  0  0
   56.4747  158.4290   -6.3578 H   0  0  0  0  0  0  0  0  0  0  0  0
  1  3  1  0  0  0  0
  1  5  2  0  0  0  0
  2  4  2  0  0  0  0
  2  5  1  0  0  0  0
  3  6  2  0  0  0  0
  4  6  1  0  0  0  0
  5 12  1  0  0  0  0
  6 14  1  0  0  0  0
  7  9  1  0  0  0  0
  7 13  1  0  0  0  0
  7 16  2  0  0  0  0
  8 11  1  0  0  0  0
  8 13  1  0  0  0  0
  8 17  2  0  0  0  0
  9 10  1  0  0  0  0
 10 11  1  0  0  0  0
 11 15  1  0  0  0  0
 12 20  1  0  0  0  0
 15 20  1  0  0  0  0
 18 20  2  0  0  0  0
 19 20  2  0  0  0  0
  1 21  1  0  0  0  0
  2 22  1  0  0  0  0
  3 23  1  0  0  0  0
  4 24  1  0  0  0  0
  9 25  1  0  0  0  0
  9 26  1  0  0  0  0
 10 27  1  0  0  0  0
 10 28  1  0  0  0  0
 11 29  1  0  0  0  0
 12 30  1  0  0  0  0
 12 31  1  0  0  0  0
 13 32  1  0  0  0  0
 14 33  1  0  0  0  0
 14 34  1  0  0  0  0
 15 35  1  0  0  0  0
M  END
> <FRED Chemgauss4 score>
-7.202031

$$$$
C85275770	P133442969
  -OEChem-05122015073D

 29 30  0     1  0  0  0  0  0999 V2000
   55.2887  154.7292   -5.3633 C   0  0  0  0  0  0  0  0  0  0  0  0
   56.8373  154.8554   -6.8181 C   0  0  0  0  0  0  0  0  0  0  0  0
   55.8920  155.9467   -5.1532 C   0  0  0  0  0  0  0  0  0  0  0  0
   59.1978  156.8888   -6.9485 C   0  0  0  0  0  0  0  0  0  0  0  0
   59.1277  157.2211   -5.4909 C   0  0  0  0  0  0  0  0  0  0  0  0
   57.8563  157.1480   -6.3037 C   0  0  0  0  0  0  0  0  0  0  0  0
   53.4275  156.3786   -2.9489 C   0  0  0  0  0  0  0  0  0  0  0  0
   55.6166  157.0437   -4.1499 C   0  0  2  0  0  0  0  0  0  0  0  0
   54.9481  156.5492   -2.8492 C   0  0  1  0  0  0  0  0  0  0  0  0
   55.8819  154.0546   -6.4009 N   0  0  0  0  0  0  0  0  0  0  0  0
   56.8823  156.0132   -6.0923 N   0  0  0  0  0  0  0  0  0  0  0  0
   55.2625  157.4671   -1.7707 N   0  0  0  0  0  0  0  0  0  0  0  0
   52.9302  155.5125   -1.9368 O   0  0  0  0  0  0  0  0  0  0  0  0
   54.7609  157.9944   -4.7925 O   0  0  0  0  0  0  0  0  0  0  0  0
   54.4574  154.3018   -4.8212 H   0  0  0  0  0  0  0  0  0  0  0  0
   57.5215  154.6515   -7.6306 H   0  0  0  0  0  0  0  0  0  0  0  0
   59.5880  157.6433   -7.6205 H   0  0  0  0  0  0  0  0  0  0  0  0
   59.4513  155.8714   -7.2208 H   0  0  0  0  0  0  0  0  0  0  0  0
   59.3347  156.4276   -4.7832 H   0  0  0  0  0  0  0  0  0  0  0  0
   59.4692  158.2005   -5.1792 H   0  0  0  0  0  0  0  0  0  0  0  0
   57.3472  158.0581   -6.5360 H   0  0  0  0  0  0  0  0  0  0  0  0
   53.1489  155.9485   -3.9160 H   0  0  0  0  0  0  0  0  0  0  0  0
   52.9133  157.3419   -2.8585 H   0  0  0  0  0  0  0  0  0  0  0  0
   56.5465  157.5769   -3.9152 H   0  0  0  0  0  0  0  0  0  0  0  0
   55.3867  155.5930   -2.5390 H   0  0  0  0  0  0  0  0  0  0  0  0
   56.1619  157.9077   -1.7640 H   0  0  0  0  0  0  0  0  0  0  0  0
   54.6673  157.4811   -0.9653 H   0  0  0  0  0  0  0  0  0  0  0  0
   51.9697  155.4553   -2.0650 H   0  0  0  0  0  0  0  0  0  0  0  0
   54.5927  158.6900   -4.1407 H   0  0  0  0  0  0  0  0  0  0  0  0
  1  3  2  0  0  0  0
  1 10  1  0  0  0  0
  2 10  2  0  0  0  0
  2 11  1  0  0  0  0
  3  8  1  0  0  0  0
  3 11  1  0  0  0  0
  4  5  1  0  0  0  0
  4  6  1  0  0  0  0
  5  6  1  0  0  0  0
  6 11  1  0  0  0  0
  7  9  1  0  0  0  0
  7 13  1  0  0  0  0
  8  9  1  0  0  0  0
  8 14  1  0  0  0  0
  9 12  1  0  0  0  0
  1 15  1  0  0  0  0
  2 16  1  0  0  0  0
  4 17  1  0  0  0  0
  4 18  1  0  0  0  0
  5 19  1  0  0  0  0
  5 20  1  0  0  0  0
  6 21  1  0  0  0  0
  7 22  1  0  0  0  0
  7 23  1  0  0  0  0
  8 24  1  0  0  0  0
  9 25  1  0  0  0  0
 12 26  1  0  0  0  0
 12 27  1  0  0  0  0
 13 28  1  0  0  0  0
 14 29  1  0  0  0  0
M  END
> <FRED Chemgauss4 score>
-7.197199

$$$$
C80540978	P125746331
  -OEChem-05122015073D

 34 35  0     0  0  0  0  0  0999 V2000
   57.9731  159.9479   -0.2295 C   0  0  0  0  0  0  0  0  0  0  0  0
   57.0000  159.2598   -0.9541 C   0  0  0  0  0  0  0  0  0  0  0  0
   57.6528  161.8843   -1.6383 C   0  0  0  0  0  0  0  0  0  0  0  0
   53.0745  157.5729   -6.7460 C   0  0  0  0  0  0  0  0  0  0  0  0
   58.2995  161.2602   -0.5716 C   0  0  0  0  0  0  0  0  0  0  0  0
   56.3532  159.8839   -2.0208 C   0  0  0  0  0  0  0  0  0  0  0  0
   56.6796  161.1962   -2.3629 C   0  0  0  0  0  0  0  0  0  0  0  0
   54.8690  156.6965   -6.1387 C   0  0  0  0  0  0  0  0  0  0  0  0
   56.2734  156.1555   -6.0460 C   0  0  0  0  0  0  0  0  0  0  0  0
   57.3379  157.2312   -5.7924 C   0  0  0  0  0  0  0  0  0  0  0  0
   57.1686  157.9915   -4.4785 C   0  0  0  0  0  0  0  0  0  0  0  0
   54.3348  157.2832   -7.1846 N   0  0  0  0  0  0  0  0  0  0  0  0
   53.9594  156.6445   -5.1288 N   0  0  0  0  0  0  0  0  0  0  0  0
   52.7953  157.2024   -5.4945 N   0  0  0  0  0  0  0  0  0  0  0  0
   59.2836  161.9556    0.1614 N   0  0  0  0  0  0  0  0  0  0  0  0
   55.9217  158.7021   -4.4074 N   0  0  0  0  0  0  0  0  0  0  0  0
   54.9677  157.6829   -2.2363 O   0  0  0  0  0  0  0  0  0  0  0  0
   53.9883  159.8389   -3.0830 O   0  0  0  0  0  0  0  0  0  0  0  0
   55.1290  158.9617   -2.9015 S   0  0  0  0  0  0  0  0  0  0  0  0
   55.9085  162.0133   -3.6746 Cl  0  0  0  0  0  0  0  0  0  0  0  0
   58.4710  159.4521    0.5999 H   0  0  0  0  0  0  0  0  0  0  0  0
   56.7553  158.2377   -0.6769 H   0  0  0  0  0  0  0  0  0  0  0  0
   57.9118  162.9082   -1.9004 H   0  0  0  0  0  0  0  0  0  0  0  0
   52.3466  158.0716   -7.3725 H   0  0  0  0  0  0  0  0  0  0  0  0
   56.5198  155.5866   -6.9509 H   0  0  0  0  0  0  0  0  0  0  0  0
   56.3040  155.4260   -5.2261 H   0  0  0  0  0  0  0  0  0  0  0  0
   57.3044  157.9466   -6.6241 H   0  0  0  0  0  0  0  0  0  0  0  0
   58.3365  156.7777   -5.8088 H   0  0  0  0  0  0  0  0  0  0  0  0
   57.9644  158.7361   -4.3757 H   0  0  0  0  0  0  0  0  0  0  0  0
   57.2237  157.3223   -3.6149 H   0  0  0  0  0  0  0  0  0  0  0  0
   51.9900  157.2606   -4.8773 H   0  0  0  0  0  0  0  0  0  0  0  0
   59.7058  161.5135    0.9527 H   0  0  0  0  0  0  0  0  0  0  0  0
   59.4749  162.9110   -0.0636 H   0  0  0  0  0  0  0  0  0  0  0  0
   55.7098  159.3843   -5.1663 H   0  0  0  0  0  0  0  0  0  0  0  0
  1  2  1  0  0  0  0
  1  5  2  0  0  0  0
  2  6  2  0  0  0  0
  3  5  1  0  0  0  0
  3  7  2  0  0  0  0
  4 12  2  0  0  0  0
  4 14  1  0  0  0  0
  5 15  1  0  0  0  0
  6  7  1  0  0  0  0
  6 19  1  0  0  0  0
  7 20  1  0  0  0  0
  8  9  1  0  0  0  0
  8 12  1  0  0  0  0
  8 13  2  0  0  0  0
  9 10  1  0  0  0  0
 10 11  1  0  0  0  0
 11 16  1  0  0  0  0
 13 14  1  0  0  0  0
 16 19  1  0  0  0  0
 17 19  2  0  0  0  0
 18 19  2  0  0  0  0
  1 21  1  0  0  0  0
  2 22  1  0  0  0  0
  3 23  1  0  0  0  0
  4 24  1  0  0  0  0
  9 25  1  0  0  0  0
  9 26  1  0  0  0  0
 10 27  1  0  0  0  0
 10 28  1  0  0  0  0
 11 29  1  0  0  0  0
 11 30  1  0  0  0  0
 14 31  1  0  0  0  0
 15 32  1  0  0  0  0
 15 33  1  0  0  0  0
 16 34  1  0  0  0  0
M  END
> <FRED Chemgauss4 score>
-7.194311

$$$$
C85247868	P133396751
  -OEChem-05122015073D

 29 29  0     1  0  0  0  0  0999 V2000
   57.6358  155.9893   -6.2652 C   0  0  0  0  0  0  0  0  0  0  0  0
   56.3651  154.5030   -7.6440 C   0  0  0  0  0  0  0  0  0  0  0  0
   57.6160  153.7977   -7.1537 C   0  0  0  0  0  0  0  0  0  0  0  0
   56.2167  155.6990   -6.7079 C   0  0  1  0  0  0  0  0  0  0  0  0
   59.7887  154.6744   -6.2212 C   0  0  0  0  0  0  0  0  0  0  0  0
   54.0279  155.5876   -5.7630 C   0  0  0  0  0  0  0  0  0  0  0  0
   53.5750  156.2151   -3.3315 C   0  0  0  0  0  0  0  0  0  0  0  0
   53.2152  155.3025   -4.5000 C   0  0  1  0  0  0  0  0  0  0  0  0
   58.4003  154.8664   -6.5809 N   0  0  0  0  0  0  0  0  0  0  0  0
   55.4556  155.4096   -5.5255 N   0  0  0  0  0  0  0  0  0  0  0  0
   57.9888  156.9916   -5.6605 O   0  0  0  0  0  0  0  0  0  0  0  0
   53.1172  155.6170   -2.1226 O   0  0  0  0  0  0  0  0  0  0  0  0
   51.8231  155.4566   -4.7784 O   0  0  0  0  0  0  0  0  0  0  0  0
   56.4280  154.7930   -8.7009 H   0  0  0  0  0  0  0  0  0  0  0  0
   55.5058  153.8209   -7.5472 H   0  0  0  0  0  0  0  0  0  0  0  0
   57.3910  153.0363   -6.4001 H   0  0  0  0  0  0  0  0  0  0  0  0
   58.1858  153.3518   -7.9764 H   0  0  0  0  0  0  0  0  0  0  0  0
   55.8342  156.5740   -7.2226 H   0  0  0  0  0  0  0  0  0  0  0  0
   59.8600  154.1804   -5.2487 H   0  0  0  0  0  0  0  0  0  0  0  0
   60.3013  155.6385   -6.1646 H   0  0  0  0  0  0  0  0  0  0  0  0
   60.2905  154.0540   -6.9686 H   0  0  0  0  0  0  0  0  0  0  0  0
   53.7265  154.9041   -6.5639 H   0  0  0  0  0  0  0  0  0  0  0  0
   53.8457  156.6106   -6.1084 H   0  0  0  0  0  0  0  0  0  0  0  0
   53.0907  157.1914   -3.4314 H   0  0  0  0  0  0  0  0  0  0  0  0
   54.6580  156.3484   -3.2445 H   0  0  0  0  0  0  0  0  0  0  0  0
   53.3620  154.2572   -4.2032 H   0  0  0  0  0  0  0  0  0  0  0  0
   55.6270  154.4447   -5.2384 H   0  0  0  0  0  0  0  0  0  0  0  0
   53.3617  156.2215   -1.4045 H   0  0  0  0  0  0  0  0  0  0  0  0
   51.6117  154.8187   -5.4765 H   0  0  0  0  0  0  0  0  0  0  0  0
  1  4  1  0  0  0  0
  1  9  1  0  0  0  0
  1 11  2  0  0  0  0
  2  3  1  0  0  0  0
  2  4  1  0  0  0  0
  3  9  1  0  0  0  0
  4 10  1  0  0  0  0
  5  9  1  0  0  0  0
  6  8  1  0  0  0  0
  6 10  1  0  0  0  0
  7  8  1  0  0  0  0
  7 12  1  0  0  0  0
  8 13  1  0  0  0  0
  2 14  1  0  0  0  0
  2 15  1  0  0  0  0
  3 16  1  0  0  0  0
  3 17  1  0  0  0  0
  4 18  1  0  0  0  0
  5 19  1  0  0  0  0
  5 20  1  0  0  0  0
  5 21  1  0  0  0  0
  6 22  1  0  0  0  0
  6 23  1  0  0  0  0
  7 24  1  0  0  0  0
  7 25  1  0  0  0  0
  8 26  1  0  0  0  0
 10 27  1  0  0  0  0
 12 28  1  0  0  0  0
 13 29  1  0  0  0  0
M  END
> <FRED Chemgauss4 score>
-7.185348

$$$$
C54791059	P82480672
  -OEChem-05122015073D

 28 29  0     0  0  0  0  0  0999 V2000
   58.9498  162.1255   -2.5499 C   0  0  0  0  0  0  0  0  0  0  0  0
   57.7491  162.5036   -3.1508 C   0  0  0  0  0  0  0  0  0  0  0  0
   58.9953  160.9960   -1.7326 C   0  0  0  0  0  0  0  0  0  0  0  0
   55.3320  156.1833   -3.9885 C   0  0  0  0  0  0  0  0  0  0  0  0
   56.2669  157.1650   -4.2465 C   0  0  0  0  0  0  0  0  0  0  0  0
   56.6395  160.6229   -2.1170 C   0  0  0  0  0  0  0  0  0  0  0  0
   56.5940  161.7523   -2.9344 C   0  0  0  0  0  0  0  0  0  0  0  0
   57.8402  160.2447   -1.5162 C   0  0  0  0  0  0  0  0  0  0  0  0
   54.4203  156.4738   -2.9941 C   0  0  0  0  0  0  0  0  0  0  0  0
   55.3743  158.5070   -2.6436 C   0  0  0  0  0  0  0  0  0  0  0  0
   55.3987  159.8156   -1.8851 C   0  0  0  0  0  0  0  0  0  0  0  0
   53.3712  155.4727   -2.6438 C   0  0  0  0  0  0  0  0  0  0  0  0
   56.3174  158.3431   -3.5908 N   0  0  0  0  0  0  0  0  0  0  0  0
   54.4125  157.6298   -2.2986 N   0  0  0  0  0  0  0  0  0  0  0  0
   52.3171  155.4186   -3.6245 N   0  0  0  0  0  0  0  0  0  0  0  0
   55.1295  162.2561   -3.6983 Cl  0  0  0  0  0  0  0  0  0  0  0  0
   57.9427  158.8517   -0.5008 Cl  0  0  0  0  0  0  0  0  0  0  0  0
   59.8487  162.7114   -2.7178 H   0  0  0  0  0  0  0  0  0  0  0  0
   57.7310  163.3878   -3.7831 H   0  0  0  0  0  0  0  0  0  0  0  0
   59.9393  160.7155   -1.2725 H   0  0  0  0  0  0  0  0  0  0  0  0
   55.3233  155.2498   -4.5361 H   0  0  0  0  0  0  0  0  0  0  0  0
   57.0247  157.0275   -5.0109 H   0  0  0  0  0  0  0  0  0  0  0  0
   55.2729  159.6130   -0.8094 H   0  0  0  0  0  0  0  0  0  0  0  0
   54.5065  160.4048   -2.1514 H   0  0  0  0  0  0  0  0  0  0  0  0
   53.7985  154.4637   -2.5622 H   0  0  0  0  0  0  0  0  0  0  0  0
   52.9059  155.6996   -1.6748 H   0  0  0  0  0  0  0  0  0  0  0  0
   51.4027  155.1073   -3.3424 H   0  0  0  0  0  0  0  0  0  0  0  0
   52.5531  155.4929   -4.6000 H   0  0  0  0  0  0  0  0  0  0  0  0
  1  2  1  0  0  0  0
  1  3  2  0  0  0  0
  2  7  2  0  0  0  0
  3  8  1  0  0  0  0
  4  5  1  0  0  0  0
  4  9  2  0  0  0  0
  5 13  2  0  0  0  0
  6  7  1  0  0  0  0
  6  8  2  0  0  0  0
  6 11  1  0  0  0  0
  7 16  1  0  0  0  0
  8 17  1  0  0  0  0
  9 12  1  0  0  0  0
  9 14  1  0  0  0  0
 10 11  1  0  0  0  0
 10 13  1  0  0  0  0
 10 14  2  0  0  0  0
 12 15  1  0  0  0  0
  1 18  1  0  0  0  0
  2 19  1  0  0  0  0
  3 20  1  0  0  0  0
  4 21  1  0  0  0  0
  5 22  1  0  0  0  0
 11 23  1  0  0  0  0
 11 24  1  0  0  0  0
 12 25  1  0  0  0  0
 12 26  1  0  0  0  0
 15 27  1  0  0  0  0
 15 28  1  0  0  0  0
M  END
> <FRED Chemgauss4 score>
-7.168614

$$$$
C78406664	P122332302
  -OEChem-05122015073D

 38 39  0     1  0  0  0  0  0999 V2000
   53.5734  156.1276   -3.6479 C   0  0  0  0  0  0  0  0  0  0  0  0
   58.1873  158.1073   -5.1690 C   0  0  0  0  0  0  0  0  0  0  0  0
   54.4419  154.4470   -5.2452 C   0  0  0  0  0  0  0  0  0  0  0  0
   59.5047  161.2524   -5.1011 C   0  0  0  0  0  0  0  0  0  0  0  0
   60.3726  161.0351   -6.3066 C   0  0  0  0  0  0  0  0  0  0  0  0
   55.8009  153.8088   -5.5325 C   0  0  0  0  0  0  0  0  0  0  0  0
   55.9825  156.1786   -4.2205 C   0  0  0  0  0  0  0  0  0  0  0  0
   54.5724  155.8866   -4.7385 C   0  0  2  0  0  0  0  0  0  0  0  0
   59.9328  159.8601   -5.4767 C   0  0  0  0  0  0  0  0  0  0  0  0
   56.7773  154.8326   -6.1345 C   0  0  2  0  0  0  0  0  0  0  0  0
   58.1051  154.1452   -6.4643 C   0  0  0  0  0  0  0  0  0  0  0  0
   57.2963  157.2007   -5.9792 C   0  0  0  0  0  0  0  0  0  0  0  0
   57.0324  155.9720   -5.2280 N   0  0  1  0  0  0  0  0  0  0  0  0
   52.2721  155.8971   -4.0270 N   0  0  0  0  0  0  0  0  0  0  0  0
   58.9844  158.8960   -5.9862 N   0  0  0  0  0  0  0  0  0  0  0  0
   53.9102  156.4819   -2.5207 O   0  0  0  0  0  0  0  0  0  0  0  0
   58.1897  158.1310   -3.9410 O   0  0  0  0  0  0  0  0  0  0  0  0
   53.8454  154.4461   -6.1701 H   0  0  0  0  0  0  0  0  0  0  0  0
   53.8942  153.8291   -4.5188 H   0  0  0  0  0  0  0  0  0  0  0  0
   59.9566  161.7150   -4.2320 H   0  0  0  0  0  0  0  0  0  0  0  0
   58.4691  161.5235   -5.2663 H   0  0  0  0  0  0  0  0  0  0  0  0
   59.9207  161.1597   -7.2829 H   0  0  0  0  0  0  0  0  0  0  0  0
   61.4063  161.3525   -6.2454 H   0  0  0  0  0  0  0  0  0  0  0  0
   56.2111  153.3928   -4.6082 H   0  0  0  0  0  0  0  0  0  0  0  0
   55.6570  152.9752   -6.2242 H   0  0  0  0  0  0  0  0  0  0  0  0
   56.0184  157.2133   -3.8396 H   0  0  0  0  0  0  0  0  0  0  0  0
   56.1733  155.5208   -3.3568 H   0  0  0  0  0  0  0  0  0  0  0  0
   54.3262  156.5726   -5.5363 H   0  0  0  0  0  0  0  0  0  0  0  0
   60.6892  159.3975   -4.8521 H   0  0  0  0  0  0  0  0  0  0  0  0
   56.3642  155.2145   -7.0817 H   0  0  0  0  0  0  0  0  0  0  0  0
   58.5451  153.7538   -5.5518 H   0  0  0  0  0  0  0  0  0  0  0  0
   58.7821  154.8653   -6.9141 H   0  0  0  0  0  0  0  0  0  0  0  0
   57.9266  153.3306   -7.1599 H   0  0  0  0  0  0  0  0  0  0  0  0
   56.3486  157.7059   -6.1879 H   0  0  0  0  0  0  0  0  0  0  0  0
   57.7866  156.9461   -6.9234 H   0  0  0  0  0  0  0  0  0  0  0  0
   52.0884  155.5932   -4.9775 H   0  0  0  0  0  0  0  0  0  0  0  0
   51.4880  156.0187   -3.3943 H   0  0  0  0  0  0  0  0  0  0  0  0
   58.8969  158.7904   -6.9928 H   0  0  0  0  0  0  0  0  0  0  0  0
  1  8  1  0  0  0  0
  1 14  1  0  0  0  0
  1 16  2  0  0  0  0
  2 12  1  0  0  0  0
  2 15  1  0  0  0  0
  2 17  2  0  0  0  0
  3  6  1  0  0  0  0
  3  8  1  0  0  0  0
  4  5  1  0  0  0  0
  4  9  1  0  0  0  0
  5  9  1  0  0  0  0
  6 10  1  0  0  0  0
  7  8  1  0  0  0  0
  7 13  1  0  0  0  0
  9 15  1  0  0  0  0
 10 11  1  0  0  0  0
 10 13  1  0  0  0  0
 12 13  1  0  0  0  0
  3 18  1  0  0  0  0
  3 19  1  0  0  0  0
  4 20  1  0  0  0  0
  4 21  1  0  0  0  0
  5 22  1  0  0  0  0
  5 23  1  0  0  0  0
  6 24  1  0  0  0  0
  6 25  1  0  0  0  0
  7 26  1  0  0  0  0
  7 27  1  0  0  0  0
  8 28  1  0  0  0  0
  9 29  1  0  0  0  0
 10 30  1  0  0  0  0
 11 31  1  0  0  0  0
 11 32  1  0  0  0  0
 11 33  1  0  0  0  0
 12 34  1  0  0  0  0
 12 35  1  0  0  0  0
 14 36  1  0  0  0  0
 14 37  1  0  0  0  0
 15 38  1  0  0  0  0
M  END
> <FRED Chemgauss4 score>
-7.166814

$$$$
C86062192	P134790942
  -OEChem-05122015073D

 23 23  0     1  0  0  0  0  0999 V2000
   54.1274  155.8667   -2.9633 C   0  0  0  0  0  0  0  0  0  0  0  0
   54.3409  155.4925   -5.0058 C   0  0  0  0  0  0  0  0  0  0  0  0
   57.8202  156.7137   -5.0880 C   0  0  0  0  0  0  0  0  0  0  0  0
   57.2718  155.7702   -5.8695 C   0  0  0  0  0  0  0  0  0  0  0  0
   57.8318  154.3781   -5.9243 C   0  0  0  0  0  0  0  0  0  0  0  0
   56.0881  156.0735   -6.7625 C   0  0  0  0  0  0  0  0  0  0  0  0
   54.8133  155.2643   -6.4331 C   0  0  1  0  0  0  0  0  0  0  0  0
   55.0677  155.7729   -3.9491 N   0  0  0  0  0  0  0  0  0  0  0  0
   52.8645  155.6620   -3.3436 N   0  0  0  0  0  0  0  0  0  0  0  0
   53.0289  155.4247   -4.6539 N   0  0  0  0  0  0  0  0  0  0  0  0
   55.0784  153.8671   -6.7405 N   0  0  0  0  0  0  0  0  0  0  0  0
   54.3701  156.0914   -1.9354 H   0  0  0  0  0  0  0  0  0  0  0  0
   57.4226  157.7226   -5.0571 H   0  0  0  0  0  0  0  0  0  0  0  0
   58.6769  156.4983   -4.4582 H   0  0  0  0  0  0  0  0  0  0  0  0
   57.3604  153.7404   -5.1704 H   0  0  0  0  0  0  0  0  0  0  0  0
   57.6584  153.9376   -6.9115 H   0  0  0  0  0  0  0  0  0  0  0  0
   58.9115  154.3618   -5.7412 H   0  0  0  0  0  0  0  0  0  0  0  0
   56.3867  155.8740   -7.8012 H   0  0  0  0  0  0  0  0  0  0  0  0
   55.8619  157.1486   -6.7354 H   0  0  0  0  0  0  0  0  0  0  0  0
   54.0198  155.5804   -7.1219 H   0  0  0  0  0  0  0  0  0  0  0  0
   52.2165  155.2292   -5.2273 H   0  0  0  0  0  0  0  0  0  0  0  0
   55.6960  153.6568   -7.4976 H   0  0  0  0  0  0  0  0  0  0  0  0
   54.4895  153.1713   -6.3304 H   0  0  0  0  0  0  0  0  0  0  0  0
  1  8  1  0  0  0  0
  1  9  2  0  0  0  0
  2  7  1  0  0  0  0
  2  8  2  0  0  0  0
  2 10  1  0  0  0  0
  3  4  2  0  0  0  0
  4  5  1  0  0  0  0
  4  6  1  0  0  0  0
  6  7  1  0  0  0  0
  7 11  1  0  0  0  0
  9 10  1  0  0  0  0
  1 12  1  0  0  0  0
  3 13  1  0  0  0  0
  3 14  1  0  0  0  0
  5 15  1  0  0  0  0
  5 16  1  0  0  0  0
  5 17  1  0  0  0  0
  6 18  1  0  0  0  0
  6 19  1  0  0  0  0
  7 20  1  0  0  0  0
 10 21  1  0  0  0  0
 11 22  1  0  0  0  0
 11 23  1  0  0  0  0
M  END
> <FRED Chemgauss4 score>
-7.157608

$$$$
C83778409	P131081128
  -OEChem-05122015073D

 38 39  0     1  0  0  0  0  0999 V2000
   55.6918  155.4727   -5.6438 C   0  0  0  0  0  0  0  0  0  0  0  0
   53.9313  155.1044   -4.5843 C   0  0  0  0  0  0  0  0  0  0  0  0
   57.3775  157.0914   -6.4985 C   0  0  0  0  0  0  0  0  0  0  0  0
   57.6761  154.6030   -6.8684 C   0  0  0  0  0  0  0  0  0  0  0  0
   58.8543  157.3139   -6.8232 C   0  0  0  0  0  0  0  0  0  0  0  0
   59.1523  154.8314   -7.1923 C   0  0  0  0  0  0  0  0  0  0  0  0
   57.1337  155.6868   -5.9218 C   0  0  0  0  0  0  0  0  0  0  0  0
   59.3967  156.2327   -7.7671 C   0  0  0  0  0  0  0  0  0  0  0  0
   61.4280  155.4341   -8.9856 C   0  0  0  0  0  0  0  0  0  0  0  0
   53.0641  153.4973   -2.8308 C   0  0  0  0  0  0  0  0  0  0  0  0
   60.8844  156.4515   -8.0373 C   0  0  0  0  0  0  0  0  0  0  0  0
   52.8839  154.8310   -3.5873 C   0  0  1  0  0  0  0  0  0  0  0  0
   55.2228  155.2294   -4.3846 N   0  0  0  0  0  0  0  0  0  0  0  0
   54.7717  155.5061   -6.6101 N   0  0  0  0  0  0  0  0  0  0  0  0
   53.6547  155.2678   -5.9059 N   0  0  0  0  0  0  0  0  0  0  0  0
   52.7483  155.8900   -2.5905 N   0  0  0  0  0  0  0  0  0  0  0  0
   57.0441  157.8550   -5.7845 H   0  0  0  0  0  0  0  0  0  0  0  0
   56.7799  157.2342   -7.4088 H   0  0  0  0  0  0  0  0  0  0  0  0
   57.0972  154.5935   -7.8017 H   0  0  0  0  0  0  0  0  0  0  0  0
   57.5534  153.6109   -6.4161 H   0  0  0  0  0  0  0  0  0  0  0  0
   58.9781  158.3035   -7.2789 H   0  0  0  0  0  0  0  0  0  0  0  0
   59.4320  157.3200   -5.8900 H   0  0  0  0  0  0  0  0  0  0  0  0
   59.7469  154.6919   -6.2804 H   0  0  0  0  0  0  0  0  0  0  0  0
   59.4858  154.0706   -7.9081 H   0  0  0  0  0  0  0  0  0  0  0  0
   57.6654  155.6083   -4.9644 H   0  0  0  0  0  0  0  0  0  0  0  0
   58.8649  156.3112   -8.7247 H   0  0  0  0  0  0  0  0  0  0  0  0
   61.2831  154.4300   -8.5700 H   0  0  0  0  0  0  0  0  0  0  0  0
   62.5009  155.5833   -9.1465 H   0  0  0  0  0  0  0  0  0  0  0  0
   60.9090  155.4811   -9.9488 H   0  0  0  0  0  0  0  0  0  0  0  0
   54.0392  153.4720   -2.3322 H   0  0  0  0  0  0  0  0  0  0  0  0
   52.2897  153.3506   -2.0695 H   0  0  0  0  0  0  0  0  0  0  0  0
   53.0110  152.6413   -3.5128 H   0  0  0  0  0  0  0  0  0  0  0  0
   61.0284  157.4529   -8.4508 H   0  0  0  0  0  0  0  0  0  0  0  0
   61.4300  156.4004   -7.0916 H   0  0  0  0  0  0  0  0  0  0  0  0
   51.8806  154.7814   -4.0626 H   0  0  0  0  0  0  0  0  0  0  0  0
   52.7639  155.2326   -6.3876 H   0  0  0  0  0  0  0  0  0  0  0  0
   52.3551  155.6533   -1.7056 H   0  0  0  0  0  0  0  0  0  0  0  0
   52.8586  156.8339   -2.8916 H   0  0  0  0  0  0  0  0  0  0  0  0
  1  7  1  0  0  0  0
  1 13  1  0  0  0  0
  1 14  2  0  0  0  0
  2 12  1  0  0  0  0
  2 13  2  0  0  0  0
  2 15  1  0  0  0  0
  3  5  1  0  0  0  0
  3  7  1  0  0  0  0
  4  6  1  0  0  0  0
  4  7  1  0  0  0  0
  5  8  1  0  0  0  0
  6  8  1  0  0  0  0
  8 11  1  0  0  0  0
  9 11  1  0  0  0  0
 10 12  1  0  0  0  0
 12 16  1  0  0  0  0
 14 15  1  0  0  0  0
  3 17  1  0  0  0  0
  3 18  1  0  0  0  0
  4 19  1  0  0  0  0
  4 20  1  0  0  0  0
  5 21  1  0  0  0  0
  5 22  1  0  0  0  0
  6 23  1  0  0  0  0
  6 24  1  0  0  0  0
  7 25  1  0  0  0  0
  8 26  1  0  0  0  0
  9 27  1  0  0  0  0
  9 28  1  0  0  0  0
  9 29  1  0  0  0  0
 10 30  1  0  0  0  0
 10 31  1  0  0  0  0
 10 32  1  0  0  0  0
 11 33  1  0  0  0  0
 11 34  1  0  0  0  0
 12 35  1  0  0  0  0
 15 36  1  0  0  0  0
 16 37  1  0  0  0  0
 16 38  1  0  0  0  0
M  END
> <FRED Chemgauss4 score>
-7.156673

$$$$
C98077085	P155853031
  -OEChem-05122015073D

 51 53  0     0  0  0  0  0  0999 V2000
   57.9065  164.0536   -3.8869 C   0  0  0  0  0  0  0  0  0  0  0  0
   58.4742  162.9743   -3.2063 C   0  0  0  0  0  0  0  0  0  0  0  0
   56.9661  163.3076   -1.3257 C   0  0  0  0  0  0  0  0  0  0  0  0
   56.8662  164.7375   -3.2806 C   0  0  0  0  0  0  0  0  0  0  0  0
   56.4011  164.3685   -2.0129 C   0  0  0  0  0  0  0  0  0  0  0  0
   58.0073  162.6039   -1.9350 C   0  0  0  0  0  0  0  0  0  0  0  0
   55.2777  156.8756   -3.1471 C   0  0  0  0  0  0  0  0  0  0  0  0
   56.1312  165.9369   -3.7896 C   0  0  0  0  0  0  0  0  0  0  0  0
   55.3129  165.2878   -1.5562 C   0  0  0  0  0  0  0  0  0  0  0  0
   54.8891  165.9301   -2.8857 C   0  0  0  0  0  0  0  0  0  0  0  0
   55.6163  158.7508   -1.5930 C   0  0  0  0  0  0  0  0  0  0  0  0
   57.3216  158.2254   -3.3617 C   0  0  0  0  0  0  0  0  0  0  0  0
   56.3106  160.0868   -1.3451 C   0  0  0  0  0  0  0  0  0  0  0  0
   57.9921  159.5688   -3.0896 C   0  0  0  0  0  0  0  0  0  0  0  0
   55.8350  158.2808   -3.0270 C   0  0  0  0  0  0  0  0  0  0  0  0
   54.5341  154.8699   -6.1989 C   0  0  0  0  0  0  0  0  0  0  0  0
   54.9512  154.9940   -4.7395 C   0  0  0  0  0  0  0  0  0  0  0  0
   53.4129  155.8304   -6.5766 C   0  0  0  0  0  0  0  0  0  0  0  0
   57.7632  159.9631   -1.6677 N   0  0  0  0  0  0  0  0  0  0  0  0
   55.4121  156.3227   -4.4064 N   0  0  0  0  0  0  0  0  0  0  0  0
   54.7686  156.3418   -2.1685 O   0  0  0  0  0  0  0  0  0  0  0  0
   60.0889  161.0740   -1.6199 O   0  0  0  0  0  0  0  0  0  0  0  0
   58.5211  161.4118    0.3232 O   0  0  0  0  0  0  0  0  0  0  0  0
   52.2845  155.5620   -5.7549 O   0  0  0  0  0  0  0  0  0  0  0  0
   58.7512  161.2414   -1.0950 S   0  0  0  0  0  0  0  0  0  0  0  0
   58.2762  164.3452   -4.8640 H   0  0  0  0  0  0  0  0  0  0  0  0
   59.2894  162.4248   -3.6705 H   0  0  0  0  0  0  0  0  0  0  0  0
   56.6069  163.0359   -0.3381 H   0  0  0  0  0  0  0  0  0  0  0  0
   56.7297  166.8402   -3.6331 H   0  0  0  0  0  0  0  0  0  0  0  0
   55.8575  165.8452   -4.8443 H   0  0  0  0  0  0  0  0  0  0  0  0
   54.4807  164.7541   -1.0882 H   0  0  0  0  0  0  0  0  0  0  0  0
   55.7163  166.0358   -0.8659 H   0  0  0  0  0  0  0  0  0  0  0  0
   54.4650  166.9301   -2.7503 H   0  0  0  0  0  0  0  0  0  0  0  0
   54.1104  165.3095   -3.3511 H   0  0  0  0  0  0  0  0  0  0  0  0
   55.9817  158.0144   -0.8836 H   0  0  0  0  0  0  0  0  0  0  0  0
   54.5478  158.8792   -1.4309 H   0  0  0  0  0  0  0  0  0  0  0  0
   57.4326  157.9860   -4.4193 H   0  0  0  0  0  0  0  0  0  0  0  0
   57.8211  157.4478   -2.7870 H   0  0  0  0  0  0  0  0  0  0  0  0
   55.8593  160.8462   -1.9917 H   0  0  0  0  0  0  0  0  0  0  0  0
   56.1907  160.4079   -0.3056 H   0  0  0  0  0  0  0  0  0  0  0  0
   59.0681  159.5209   -3.2915 H   0  0  0  0  0  0  0  0  0  0  0  0
   57.5531  160.3239   -3.7510 H   0  0  0  0  0  0  0  0  0  0  0  0
   55.3087  158.8832   -3.7122 H   0  0  0  0  0  0  0  0  0  0  0  0
   55.4016  155.0662   -6.8414 H   0  0  0  0  0  0  0  0  0  0  0  0
   54.2223  153.8418   -6.4223 H   0  0  0  0  0  0  0  0  0  0  0  0
   54.1005  154.7783   -4.0856 H   0  0  0  0  0  0  0  0  0  0  0  0
   55.7548  154.2908   -4.4986 H   0  0  0  0  0  0  0  0  0  0  0  0
   53.7126  156.8714   -6.4208 H   0  0  0  0  0  0  0  0  0  0  0  0
   53.1204  155.6960   -7.6229 H   0  0  0  0  0  0  0  0  0  0  0  0
   55.8561  156.8766   -5.1327 H   0  0  0  0  0  0  0  0  0  0  0  0
   51.5907  156.1876   -6.0190 H   0  0  0  0  0  0  0  0  0  0  0  0
  1  2  1  0  0  0  0
  1  4  2  0  0  0  0
  2  6  2  0  0  0  0
  3  5  2  0  0  0  0
  3  6  1  0  0  0  0
  4  5  1  0  0  0  0
  4  8  1  0  0  0  0
  5  9  1  0  0  0  0
  6 25  1  0  0  0  0
  7 15  1  0  0  0  0
  7 20  1  0  0  0  0
  7 21  2  0  0  0  0
  8 10  1  0  0  0  0
  9 10  1  0  0  0  0
 11 13  1  0  0  0  0
 11 15  1  0  0  0  0
 12 14  1  0  0  0  0
 12 15  1  0  0  0  0
 13 19  1  0  0  0  0
 14 19  1  0  0  0  0
 16 17  1  0  0  0  0
 16 18  1  0  0  0  0
 17 20  1  0  0  0  0
 18 24  1  0  0  0  0
 19 25  1  0  0  0  0
 22 25  2  0  0  0  0
 23 25  2  0  0  0  0
  1 26  1  0  0  0  0
  2 27  1  0  0  0  0
  3 28  1  0  0  0  0
  8 29  1  0  0  0  0
  8 30  1  0  0  0  0
  9 31  1  0  0  0  0
  9 32  1  0  0  0  0
 10 33  1  0  0  0  0
 10 34  1  0  0  0  0
 11 35  1  0  0  0  0
 11 36  1  0  0  0  0
 12 37  1  0  0  0  0
 12 38  1  0  0  0  0
 13 39  1  0  0  0  0
 13 40  1  0  0  0  0
 14 41  1  0  0  0  0
 14 42  1  0  0  0  0
 15 43  1  0  0  0  0
 16 44  1  0  0  0  0
 16 45  1  0  0  0  0
 17 46  1  0  0  0  0
 17 47  1  0  0  0  0
 18 48  1  0  0  0  0
 18 49  1  0  0  0  0
 20 50  1  0  0  0  0
 24 51  1  0  0  0  0
M  END
> <FRED Chemgauss4 score>
-7.154267

$$$$
C63179057	P97024353
  -OEChem-05122015073D

 47 48  0     1  0  0  0  0  0999 V2000
   59.0906  161.8161   -3.4480 C   0  0  0  0  0  0  0  0  0  0  0  0
   55.4241  158.7845   -2.3003 C   0  0  0  0  0  0  0  0  0  0  0  0
   60.6450  161.7242   -6.8824 C   0  0  0  0  0  0  0  0  0  0  0  0
   60.4331  163.0046   -6.0831 C   0  0  0  0  0  0  0  0  0  0  0  0
   60.2427  160.4926   -6.0794 C   0  0  0  0  0  0  0  0  0  0  0  0
   58.7376  159.6823   -0.5996 C   0  0  0  0  0  0  0  0  0  0  0  0
   58.9974  163.1271   -5.5734 C   0  0  0  0  0  0  0  0  0  0  0  0
   58.7992  160.5866   -5.5880 C   0  0  0  0  0  0  0  0  0  0  0  0
   57.3348  159.0981   -0.7633 C   0  0  0  0  0  0  0  0  0  0  0  0
   58.7957  161.1264   -1.0899 C   0  0  0  0  0  0  0  0  0  0  0  0
   56.9359  160.7162   -2.6610 C   0  0  0  0  0  0  0  0  0  0  0  0
   58.5073  161.8831   -4.8296 C   0  0  0  0  0  0  0  0  0  0  0  0
   56.8405  159.2593   -2.2036 C   0  0  2  0  0  0  0  0  0  0  0  0
   53.6636  156.2403   -3.4938 C   0  0  0  0  0  0  0  0  0  0  0  0
   53.7840  157.7163   -3.8337 C   0  0  0  0  0  0  0  0  0  0  0  0
   58.2962  161.2319   -2.4623 N   0  0  0  0  0  0  0  0  0  0  0  0
   52.3652  155.7130   -3.8172 N   0  0  0  0  0  0  0  0  0  0  0  0
   55.0965  158.2375   -3.5262 N   0  0  0  0  0  0  0  0  0  0  0  0
   60.2215  162.2673   -3.2486 O   0  0  0  0  0  0  0  0  0  0  0  0
   54.6800  158.9028   -1.3339 O   0  0  0  0  0  0  0  0  0  0  0  0
   60.0561  161.7677   -7.8068 H   0  0  0  0  0  0  0  0  0  0  0  0
   61.6973  161.6441   -7.1776 H   0  0  0  0  0  0  0  0  0  0  0  0
   61.1271  163.0230   -5.2340 H   0  0  0  0  0  0  0  0  0  0  0  0
   60.6755  163.8725   -6.7070 H   0  0  0  0  0  0  0  0  0  0  0  0
   60.3574  159.5974   -6.7013 H   0  0  0  0  0  0  0  0  0  0  0  0
   60.9216  160.3712   -5.2271 H   0  0  0  0  0  0  0  0  0  0  0  0
   59.0302  159.6434    0.4567 H   0  0  0  0  0  0  0  0  0  0  0  0
   59.4594  159.0735   -1.1549 H   0  0  0  0  0  0  0  0  0  0  0  0
   58.9169  164.0147   -4.9351 H   0  0  0  0  0  0  0  0  0  0  0  0
   58.3370  163.2959   -6.4333 H   0  0  0  0  0  0  0  0  0  0  0  0
   58.1294  160.5343   -6.4552 H   0  0  0  0  0  0  0  0  0  0  0  0
   58.5746  159.7162   -4.9606 H   0  0  0  0  0  0  0  0  0  0  0  0
   57.3604  158.0352   -0.5116 H   0  0  0  0  0  0  0  0  0  0  0  0
   56.6538  159.5873   -0.0644 H   0  0  0  0  0  0  0  0  0  0  0  0
   58.2217  161.7677   -0.4145 H   0  0  0  0  0  0  0  0  0  0  0  0
   59.8294  161.4913   -1.0882 H   0  0  0  0  0  0  0  0  0  0  0  0
   56.7253  160.7864   -3.7315 H   0  0  0  0  0  0  0  0  0  0  0  0
   56.1952  161.3194   -2.1398 H   0  0  0  0  0  0  0  0  0  0  0  0
   57.4229  161.9625   -4.6847 H   0  0  0  0  0  0  0  0  0  0  0  0
   57.4261  158.6315   -2.8591 H   0  0  0  0  0  0  0  0  0  0  0  0
   53.8331  156.0609   -2.4273 H   0  0  0  0  0  0  0  0  0  0  0  0
   54.3965  155.6621   -4.0651 H   0  0  0  0  0  0  0  0  0  0  0  0
   53.6186  157.8733   -4.9040 H   0  0  0  0  0  0  0  0  0  0  0  0
   53.0541  158.3142   -3.2784 H   0  0  0  0  0  0  0  0  0  0  0  0
   51.5487  156.2768   -3.6426 H   0  0  0  0  0  0  0  0  0  0  0  0
   52.2704  154.7301   -4.0174 H   0  0  0  0  0  0  0  0  0  0  0  0
   55.8123  158.1999   -4.2456 H   0  0  0  0  0  0  0  0  0  0  0  0
  1 12  1  0  0  0  0
  1 16  1  0  0  0  0
  1 19  2  0  0  0  0
  2 13  1  0  0  0  0
  2 18  1  0  0  0  0
  2 20  2  0  0  0  0
  3  4  1  0  0  0  0
  3  5  1  0  0  0  0
  4  7  1  0  0  0  0
  5  8  1  0  0  0  0
  6  9  1  0  0  0  0
  6 10  1  0  0  0  0
  7 12  1  0  0  0  0
  8 12  1  0  0  0  0
  9 13  1  0  0  0  0
 10 16  1  0  0  0  0
 11 13  1  0  0  0  0
 11 16  1  0  0  0  0
 14 15  1  0  0  0  0
 14 17  1  0  0  0  0
 15 18  1  0  0  0  0
  3 21  1  0  0  0  0
  3 22  1  0  0  0  0
  4 23  1  0  0  0  0
  4 24  1  0  0  0  0
  5 25  1  0  0  0  0
  5 26  1  0  0  0  0
  6 27  1  0  0  0  0
  6 28  1  0  0  0  0
  7 29  1  0  0  0  0
  7 30  1  0  0  0  0
  8 31  1  0  0  0  0
  8 32  1  0  0  0  0
  9 33  1  0  0  0  0
  9 34  1  0  0  0  0
 10 35  1  0  0  0  0
 10 36  1  0  0  0  0
 11 37  1  0  0  0  0
 11 38  1  0  0  0  0
 12 39  1  0  0  0  0
 13 40  1  0  0  0  0
 14 41  1  0  0  0  0
 14 42  1  0  0  0  0
 15 43  1  0  0  0  0
 15 44  1  0  0  0  0
 17 45  1  0  0  0  0
 17 46  1  0  0  0  0
 18 47  1  0  0  0  0
M  END
> <FRED Chemgauss4 score>
-7.150272

$$$$
C40807009	P61962224
  -OEChem-05122015073D

 27 27  0     0  0  0  0  0  0999 V2000
   58.0184  159.9173   -0.1481 C   0  0  0  0  0  0  0  0  0  0  0  0
   56.8508  159.4736   -0.7588 C   0  0  0  0  0  0  0  0  0  0  0  0
   58.7121  160.9541   -0.7511 C   0  0  0  0  0  0  0  0  0  0  0  0
   56.4186  160.0718   -1.9372 C   0  0  0  0  0  0  0  0  0  0  0  0
   57.1838  161.1018   -2.4600 C   0  0  0  0  0  0  0  0  0  0  0  0
   54.3388  156.5411   -3.8155 C   0  0  0  0  0  0  0  0  0  0  0  0
   55.6485  157.3330   -3.8202 C   0  0  0  0  0  0  0  0  0  0  0  0
   53.6325  156.6440   -5.1599 C   0  0  0  0  0  0  0  0  0  0  0  0
   58.3235  161.5600   -1.8954 N   0  0  0  0  0  0  0  0  0  0  0  0
   55.3843  158.7471   -4.0470 N   0  5  0  0  0  0  0  0  0  0  0  0
   52.3958  155.8268   -5.1233 N   0  3  0  0  0  0  0  0  0  0  0  0
   54.1542  160.7214   -2.9278 O   0  0  0  0  0  0  0  0  0  0  0  0
   54.3369  158.6106   -1.6917 O   0  0  0  0  0  0  0  0  0  0  0  0
   54.9034  159.4850   -2.7161 S   0  0  0  0  0  0  0  0  0  0  0  0
   56.7643  161.9279   -3.9101 Cl  0  0  0  0  0  0  0  0  0  0  0  0
   58.3744  159.4658    0.7709 H   0  0  0  0  0  0  0  0  0  0  0  0
   56.2871  158.6618   -0.3073 H   0  0  0  0  0  0  0  0  0  0  0  0
   59.6288  161.3367   -0.3146 H   0  0  0  0  0  0  0  0  0  0  0  0
   54.5420  155.4873   -3.5829 H   0  0  0  0  0  0  0  0  0  0  0  0
   53.6803  156.9159   -3.0209 H   0  0  0  0  0  0  0  0  0  0  0  0
   56.3105  156.9336   -4.5981 H   0  0  0  0  0  0  0  0  0  0  0  0
   56.1649  157.1845   -2.8640 H   0  0  0  0  0  0  0  0  0  0  0  0
   54.2466  156.2534   -5.9767 H   0  0  0  0  0  0  0  0  0  0  0  0
   53.3280  157.6702   -5.3855 H   0  0  0  0  0  0  0  0  0  0  0  0
   51.6438  156.3197   -4.6293 H   0  0  0  0  0  0  0  0  0  0  0  0
   52.5586  154.9358   -4.6413 H   0  0  0  0  0  0  0  0  0  0  0  0
   52.0656  155.6168   -6.0717 H   0  0  0  0  0  0  0  0  0  0  0  0
  1  2  1  0  0  0  0
  1  3  2  0  0  0  0
  2  4  2  0  0  0  0
  3  9  1  0  0  0  0
  4  5  1  0  0  0  0
  4 14  1  0  0  0  0
  5  9  2  0  0  0  0
  5 15  1  0  0  0  0
  6  7  1  0  0  0  0
  6  8  1  0  0  0  0
  7 10  1  0  0  0  0
  8 11  1  0  0  0  0
 10 14  1  0  0  0  0
 12 14  2  0  0  0  0
 13 14  2  0  0  0  0
  1 16  1  0  0  0  0
  2 17  1  0  0  0  0
  3 18  1  0  0  0  0
  6 19  1  0  0  0  0
  6 20  1  0  0  0  0
  7 21  1  0  0  0  0
  7 22  1  0  0  0  0
  8 23  1  0  0  0  0
  8 24  1  0  0  0  0
 11 25  1  0  0  0  0
 11 26  1  0  0  0  0
 11 27  1  0  0  0  0
M  CHG  2  10  -1  11   1
M  END
> <FRED Chemgauss4 score>
-7.149621

$$$$
C36993915	P54988732
  -OEChem-05122015073D

 32 33  0     1  0  0  0  0  0999 V2000
   59.5363  155.9374   -7.1368 C   0  0  0  0  0  0  0  0  0  0  0  0
   59.7194  154.6616   -7.6628 C   0  0  0  0  0  0  0  0  0  0  0  0
   57.6405  153.9566   -6.6514 C   0  0  0  0  0  0  0  0  0  0  0  0
   58.4109  156.2265   -6.3516 C   0  0  0  0  0  0  0  0  0  0  0  0
   57.4464  155.2341   -6.1017 C   0  0  0  0  0  0  0  0  0  0  0  0
   58.7719  153.6729   -7.4206 C   0  0  0  0  0  0  0  0  0  0  0  0
   56.1855  156.7601   -4.6082 C   0  0  0  0  0  0  0  0  0  0  0  0
   58.1878  157.6236   -5.8523 C   0  0  0  0  0  0  0  0  0  0  0  0
   57.4544  157.5821   -4.5287 C   0  0  0  0  0  0  0  0  0  0  0  0
   55.1758  154.6128   -5.2785 C   0  0  0  0  0  0  0  0  0  0  0  0
   53.1923  155.9558   -6.1489 C   0  0  0  0  0  0  0  0  0  0  0  0
   54.1761  154.8167   -6.4177 C   0  0  2  0  0  0  0  0  0  0  0  0
   56.2874  155.5587   -5.3216 N   0  0  0  0  0  0  0  0  0  0  0  0
   52.4289  155.6777   -4.9522 N   0  0  0  0  0  0  0  0  0  0  0  0
   55.1831  157.1262   -3.9908 O   0  0  0  0  0  0  0  0  0  0  0  0
   53.4372  153.6122   -6.6204 O   0  0  0  0  0  0  0  0  0  0  0  0
   58.9417  152.4457   -7.9301 F   0  0  0  0  0  0  0  0  0  0  0  0
   60.2728  156.7090   -7.3468 H   0  0  0  0  0  0  0  0  0  0  0  0
   60.5946  154.4421   -8.2667 H   0  0  0  0  0  0  0  0  0  0  0  0
   56.9289  153.1517   -6.4912 H   0  0  0  0  0  0  0  0  0  0  0  0
   59.1418  158.1466   -5.7196 H   0  0  0  0  0  0  0  0  0  0  0  0
   57.6021  158.1726   -6.5995 H   0  0  0  0  0  0  0  0  0  0  0  0
   57.1974  158.6011   -4.2186 H   0  0  0  0  0  0  0  0  0  0  0  0
   58.0845  157.1425   -3.7455 H   0  0  0  0  0  0  0  0  0  0  0  0
   54.6867  154.7263   -4.3059 H   0  0  0  0  0  0  0  0  0  0  0  0
   55.6176  153.6125   -5.3306 H   0  0  0  0  0  0  0  0  0  0  0  0
   52.4912  156.0763   -6.9812 H   0  0  0  0  0  0  0  0  0  0  0  0
   53.7287  156.8997   -6.0072 H   0  0  0  0  0  0  0  0  0  0  0  0
   54.7320  155.0158   -7.3421 H   0  0  0  0  0  0  0  0  0  0  0  0
   52.1376  154.7341   -4.7735 H   0  0  0  0  0  0  0  0  0  0  0  0
   52.0363  156.4465   -4.4403 H   0  0  0  0  0  0  0  0  0  0  0  0
   54.0855  152.9278   -6.8450 H   0  0  0  0  0  0  0  0  0  0  0  0
  1  2  1  0  0  0  0
  1  4  2  0  0  0  0
  2  6  2  0  0  0  0
  3  5  2  0  0  0  0
  3  6  1  0  0  0  0
  4  5  1  0  0  0  0
  4  8  1  0  0  0  0
  5 13  1  0  0  0  0
  6 17  1  0  0  0  0
  7  9  1  0  0  0  0
  7 13  1  0  0  0  0
  7 15  2  0  0  0  0
  8  9  1  0  0  0  0
 10 12  1  0  0  0  0
 10 13  1  0  0  0  0
 11 12  1  0  0  0  0
 11 14  1  0  0  0  0
 12 16  1  0  0  0  0
  1 18  1  0  0  0  0
  2 19  1  0  0  0  0
  3 20  1  0  0  0  0
  8 21  1  0  0  0  0
  8 22  1  0  0  0  0
  9 23  1  0  0  0  0
  9 24  1  0  0  0  0
 10 25  1  0  0  0  0
 10 26  1  0  0  0  0
 11 27  1  0  0  0  0
 11 28  1  0  0  0  0
 12 29  1  0  0  0  0
 14 30  1  0  0  0  0
 14 31  1  0  0  0  0
 16 32  1  0  0  0  0
M  END
> <FRED Chemgauss4 score>
-7.144232

$$$$
C41066225	P62330552
  -OEChem-05122015073D

 29 29  0     0  0  0  0  0  0999 V2000
   56.4358  156.4597   -4.8882 C   0  0  0  0  0  0  0  0  0  0  0  0
   56.8335  154.7366   -6.4787 C   0  0  0  0  0  0  0  0  0  0  0  0
   55.1532  155.9543   -4.7068 C   0  0  0  0  0  0  0  0  0  0  0  0
   57.2982  155.8450   -5.7892 C   0  0  0  0  0  0  0  0  0  0  0  0
   54.7845  154.8411   -5.4449 C   0  0  0  0  0  0  0  0  0  0  0  0
   53.1723  162.1010   -6.1018 C   0  0  0  0  0  0  0  0  0  0  0  0
   53.6986  162.9299   -7.2262 C   0  0  0  0  0  0  0  0  0  0  0  0
   53.2789  159.8370   -5.0794 C   0  0  0  0  0  0  0  0  0  0  0  0
   53.3094  158.4159   -5.6164 C   0  0  0  0  0  0  0  0  0  0  0  0
   55.5945  154.2170   -6.3292 N   0  0  0  0  0  0  0  0  0  0  0  0
   53.6549  160.8023   -6.0772 N   0  0  0  0  0  0  0  0  0  0  0  0
   52.9134  157.4557   -4.6220 N   0  0  0  0  0  0  0  0  0  0  0  0
   52.3837  162.5951   -5.3045 O   0  0  0  0  0  0  0  0  0  0  0  0
   53.4087  155.7162   -2.7807 O   0  0  0  0  0  0  0  0  0  0  0  0
   54.8358  157.7836   -2.8968 O   0  0  0  0  0  0  0  0  0  0  0  0
   54.0672  156.7475   -3.5596 S   0  0  0  0  0  0  0  0  0  0  0  0
   53.2299  154.1149   -5.3163 Cl  0  0  0  0  0  0  0  0  0  0  0  0
   59.0438  156.4968   -6.0626 Br  0  0  0  0  0  0  0  0  0  0  0  0
   56.7601  157.3325   -4.3262 H   0  0  0  0  0  0  0  0  0  0  0  0
   57.4570  154.2106   -7.1952 H   0  0  0  0  0  0  0  0  0  0  0  0
   53.0692  162.8634   -8.1281 H   0  0  0  0  0  0  0  0  0  0  0  0
   53.7365  164.0023   -6.9761 H   0  0  0  0  0  0  0  0  0  0  0  0
   54.7161  162.6752   -7.5634 H   0  0  0  0  0  0  0  0  0  0  0  0
   53.9619  159.9588   -4.2327 H   0  0  0  0  0  0  0  0  0  0  0  0
   52.2669  160.0928   -4.7504 H   0  0  0  0  0  0  0  0  0  0  0  0
   52.6156  158.3133   -6.4564 H   0  0  0  0  0  0  0  0  0  0  0  0
   54.3121  158.1404   -5.9588 H   0  0  0  0  0  0  0  0  0  0  0  0
   54.3099  160.5164   -6.8033 H   0  0  0  0  0  0  0  0  0  0  0  0
   51.9294  157.4910   -4.2819 H   0  0  0  0  0  0  0  0  0  0  0  0
  1  3  1  0  0  0  0
  1  4  2  0  0  0  0
  2  4  1  0  0  0  0
  2 10  2  0  0  0  0
  3  5  2  0  0  0  0
  3 16  1  0  0  0  0
  4 18  1  0  0  0  0
  5 10  1  0  0  0  0
  5 17  1  0  0  0  0
  6  7  1  0  0  0  0
  6 11  1  0  0  0  0
  6 13  2  0  0  0  0
  8  9  1  0  0  0  0
  8 11  1  0  0  0  0
  9 12  1  0  0  0  0
 12 16  1  0  0  0  0
 14 16  2  0  0  0  0
 15 16  2  0  0  0  0
  1 19  1  0  0  0  0
  2 20  1  0  0  0  0
  7 21  1  0  0  0  0
  7 22  1  0  0  0  0
  7 23  1  0  0  0  0
  8 24  1  0  0  0  0
  8 25  1  0  0  0  0
  9 26  1  0  0  0  0
  9 27  1  0  0  0  0
 11 28  1  0  0  0  0
 12 29  1  0  0  0  0
M  END
> <FRED Chemgauss4 score>
-7.135810

$$$$
C06317442	P09891162
  -OEChem-05122015073D

 17 16  0     0  0  0  0  0  0999 V2000
   56.5525  159.3665   -0.1903 C   0  0  0  0  0  0  0  0  0  0  0  0
   55.6610  159.7100   -1.1228 C   0  0  0  0  0  0  0  0  0  0  0  0
   55.3594  158.7617   -2.2126 C   0  0  0  0  0  0  0  0  0  0  0  0
   53.2497  155.3536   -4.4713 C   0  0  0  0  0  0  0  0  0  0  0  0
   53.3045  156.1284   -3.1917 C   0  0  0  0  0  0  0  0  0  0  0  0
   54.4161  157.8840   -2.1068 N   0  0  0  0  0  0  0  0  0  0  0  0
   52.0551  155.4781   -5.1306 N   0  0  0  0  0  0  0  0  0  0  0  0
   54.2775  157.0972   -3.1976 N   0  0  0  0  0  0  0  0  0  0  0  0
   54.2343  154.7202   -4.8147 O   0  0  0  0  0  0  0  0  0  0  0  0
   52.5023  155.8474   -2.3154 O   0  0  0  0  0  0  0  0  0  0  0  0
   56.7854  160.0516    0.6179 H   0  0  0  0  0  0  0  0  0  0  0  0
   57.0667  158.4116   -0.2033 H   0  0  0  0  0  0  0  0  0  0  0  0
   55.1519  160.6657   -1.1023 H   0  0  0  0  0  0  0  0  0  0  0  0
   55.9864  158.8475   -3.1196 H   0  0  0  0  0  0  0  0  0  0  0  0
   51.3223  156.0563   -4.7316 H   0  0  0  0  0  0  0  0  0  0  0  0
   51.8912  155.0015   -6.0112 H   0  0  0  0  0  0  0  0  0  0  0  0
   54.8988  157.2477   -3.9868 H   0  0  0  0  0  0  0  0  0  0  0  0
  1  2  2  0  0  0  0
  2  3  1  0  0  0  0
  3  6  2  0  0  0  0
  4  5  1  0  0  0  0
  4  7  1  0  0  0  0
  4  9  2  0  0  0  0
  5  8  1  0  0  0  0
  5 10  2  0  0  0  0
  6  8  1  0  0  0  0
  1 11  1  0  0  0  0
  1 12  1  0  0  0  0
  2 13  1  0  0  0  0
  3 14  1  0  0  0  0
  7 15  1  0  0  0  0
  7 16  1  0  0  0  0
  8 17  1  0  0  0  0
M  END
> <FRED Chemgauss4 score>
-7.128359

$$$$
C50306591	P75244020
  -OEChem-05122015073D

 35 35  0     1  0  0  0  0  0999 V2000
   55.1476  156.3125   -4.9783 C   0  0  0  0  0  0  0  0  0  0  0  0
   54.2120  157.1643   -4.3610 C   0  0  0  0  0  0  0  0  0  0  0  0
   54.3831  155.4252   -5.6957 C   0  0  0  0  0  0  0  0  0  0  0  0
   54.4786  158.3039   -3.4691 C   0  0  0  0  0  0  0  0  0  0  0  0
   54.7353  154.2846   -6.5589 C   0  0  0  0  0  0  0  0  0  0  0  0
   55.1911  159.6401   -5.4136 C   0  0  0  0  0  0  0  0  0  0  0  0
   56.8200  164.9176   -1.9466 C   0  0  0  0  0  0  0  0  0  0  0  0
   56.0994  160.2361   -3.1958 C   0  0  0  0  0  0  0  0  0  0  0  0
   56.5298  162.6518   -2.4989 C   0  0  0  0  0  0  0  0  0  0  0  0
   55.6569  161.6953   -3.3055 C   0  0  2  0  0  0  0  0  0  0  0  0
   52.9496  156.8467   -4.6602 N   0  0  0  0  0  0  0  0  0  0  0  0
   53.0866  155.7856   -5.4734 N   0  0  0  0  0  0  0  0  0  0  0  0
   56.4924  156.3477   -4.8915 N   0  0  0  0  0  0  0  0  0  0  0  0
   55.2468  159.3692   -3.9767 N   0  0  0  0  0  0  0  0  0  0  0  0
   53.9923  158.2375   -2.3407 O   0  0  0  0  0  0  0  0  0  0  0  0
   54.3076  161.8230   -2.8556 O   0  0  0  0  0  0  0  0  0  0  0  0
   56.0534  163.9807   -2.6889 O   0  0  0  0  0  0  0  0  0  0  0  0
   54.7950  153.3476   -5.9793 H   0  0  0  0  0  0  0  0  0  0  0  0
   53.9979  154.1298   -7.3664 H   0  0  0  0  0  0  0  0  0  0  0  0
   55.7084  154.4274   -7.0617 H   0  0  0  0  0  0  0  0  0  0  0  0
   54.3888  160.3498   -5.6313 H   0  0  0  0  0  0  0  0  0  0  0  0
   55.0021  158.7152   -5.9655 H   0  0  0  0  0  0  0  0  0  0  0  0
   56.1389  160.0646   -5.7552 H   0  0  0  0  0  0  0  0  0  0  0  0
   56.4289  165.9240   -2.1146 H   0  0  0  0  0  0  0  0  0  0  0  0
   57.8655  164.8644   -2.2605 H   0  0  0  0  0  0  0  0  0  0  0  0
   56.7477  164.6737   -0.8841 H   0  0  0  0  0  0  0  0  0  0  0  0
   57.1255  160.1278   -3.5630 H   0  0  0  0  0  0  0  0  0  0  0  0
   56.0809  159.9117   -2.1502 H   0  0  0  0  0  0  0  0  0  0  0  0
   57.5704  162.6134   -2.8355 H   0  0  0  0  0  0  0  0  0  0  0  0
   56.4810  162.4336   -1.4273 H   0  0  0  0  0  0  0  0  0  0  0  0
   55.6654  161.9980   -4.3593 H   0  0  0  0  0  0  0  0  0  0  0  0
   52.2476  155.3538   -5.8407 H   0  0  0  0  0  0  0  0  0  0  0  0
   56.9906  157.0805   -4.3629 H   0  0  0  0  0  0  0  0  0  0  0  0
   57.0950  155.7018   -5.4246 H   0  0  0  0  0  0  0  0  0  0  0  0
   53.7729  161.2554   -3.4307 H   0  0  0  0  0  0  0  0  0  0  0  0
  1  2  1  0  0  0  0
  1  3  2  0  0  0  0
  1 13  1  0  0  0  0
  2  4  1  0  0  0  0
  2 11  2  0  0  0  0
  3  5  1  0  0  0  0
  3 12  1  0  0  0  0
  4 14  1  0  0  0  0
  4 15  2  0  0  0  0
  6 14  1  0  0  0  0
  7 17  1  0  0  0  0
  8 10  1  0  0  0  0
  8 14  1  0  0  0  0
  9 10  1  0  0  0  0
  9 17  1  0  0  0  0
 10 16  1  0  0  0  0
 11 12  1  0  0  0  0
  5 18  1  0  0  0  0
  5 19  1  0  0  0  0
  5 20  1  0  0  0  0
  6 21  1  0  0  0  0
  6 22  1  0  0  0  0
  6 23  1  0  0  0  0
  7 24  1  0  0  0  0
  7 25  1  0  0  0  0
  7 26  1  0  0  0  0
  8 27  1  0  0  0  0
  8 28  1  0  0  0  0
  9 29  1  0  0  0  0
  9 30  1  0  0  0  0
 10 31  1  0  0  0  0
 12 32  1  0  0  0  0
 13 33  1  0  0  0  0
 13 34  1  0  0  0  0
 16 35  1  0  0  0  0
M  END
> <FRED Chemgauss4 score>
-7.126012

$$$$
C35354185	P52456381
  -OEChem-05122015073D

 34 35  0     0  0  0  0  0  0999 V2000
   57.9181  155.5616   -6.9054 C   0  0  0  0  0  0  0  0  0  0  0  0
   58.5970  156.4871   -6.1128 C   0  0  0  0  0  0  0  0  0  0  0  0
   56.5266  155.4822   -6.8484 C   0  0  0  0  0  0  0  0  0  0  0  0
   57.0859  161.2491   -4.4022 C   0  0  0  0  0  0  0  0  0  0  0  0
   57.8844  157.3332   -5.2631 C   0  0  0  0  0  0  0  0  0  0  0  0
   57.4833  162.5123   -3.9641 C   0  0  0  0  0  0  0  0  0  0  0  0
   54.7967  162.0118   -4.5252 C   0  0  0  0  0  0  0  0  0  0  0  0
   55.1941  163.2751   -4.0870 C   0  0  0  0  0  0  0  0  0  0  0  0
   55.7426  160.9989   -4.6828 C   0  0  0  0  0  0  0  0  0  0  0  0
   55.8141  156.3284   -5.9987 C   0  0  0  0  0  0  0  0  0  0  0  0
   56.4929  157.2539   -5.2060 C   0  0  0  0  0  0  0  0  0  0  0  0
   56.5374  163.5253   -3.8064 C   0  0  0  0  0  0  0  0  0  0  0  0
   54.1460  164.3294   -3.9327 C   0  0  0  0  0  0  0  0  0  0  0  0
   53.7422  155.1566   -6.5055 N   0  0  0  0  0  0  0  0  0  0  0  0
   54.4058  156.2287   -5.9588 N   0  0  0  0  0  0  0  0  0  0  0  0
   55.3364  159.7057   -5.1320 N   0  0  0  0  0  0  0  0  0  0  0  0
   56.5593  158.7258   -3.0718 O   0  0  0  0  0  0  0  0  0  0  0  0
   54.3694  157.7125   -3.7626 O   0  0  0  0  0  0  0  0  0  0  0  0
   55.6258  158.3454   -4.1155 S   0  0  0  0  0  0  0  0  0  0  0  0
   57.1261  165.2259   -3.2083 Br  0  0  0  0  0  0  0  0  0  0  0  0
   58.4729  154.9032   -7.5674 H   0  0  0  0  0  0  0  0  0  0  0  0
   59.6804  156.5484   -6.1574 H   0  0  0  0  0  0  0  0  0  0  0  0
   56.0088  154.7572   -7.4713 H   0  0  0  0  0  0  0  0  0  0  0  0
   57.8313  160.4667   -4.5223 H   0  0  0  0  0  0  0  0  0  0  0  0
   58.4251  158.0504   -4.6512 H   0  0  0  0  0  0  0  0  0  0  0  0
   58.5345  162.6885   -3.7507 H   0  0  0  0  0  0  0  0  0  0  0  0
   53.7495  161.8164   -4.7442 H   0  0  0  0  0  0  0  0  0  0  0  0
   53.7311  164.3054   -2.9188 H   0  0  0  0  0  0  0  0  0  0  0  0
   54.5593  165.3278   -4.1187 H   0  0  0  0  0  0  0  0  0  0  0  0
   53.3291  164.1824   -4.6494 H   0  0  0  0  0  0  0  0  0  0  0  0
   52.9372  155.5095   -7.0208 H   0  0  0  0  0  0  0  0  0  0  0  0
   53.3643  154.5891   -5.7480 H   0  0  0  0  0  0  0  0  0  0  0  0
   53.9053  156.8479   -5.3389 H   0  0  0  0  0  0  0  0  0  0  0  0
   54.4512  159.6816   -5.6637 H   0  0  0  0  0  0  0  0  0  0  0  0
  1  2  1  0  0  0  0
  1  3  2  0  0  0  0
  2  5  2  0  0  0  0
  3 10  1  0  0  0  0
  4  6  2  0  0  0  0
  4  9  1  0  0  0  0
  5 11  1  0  0  0  0
  6 12  1  0  0  0  0
  7  8  1  0  0  0  0
  7  9  2  0  0  0  0
  8 12  2  0  0  0  0
  8 13  1  0  0  0  0
  9 16  1  0  0  0  0
 10 11  2  0  0  0  0
 10 15  1  0  0  0  0
 11 19  1  0  0  0  0
 12 20  1  0  0  0  0
 14 15  1  0  0  0  0
 16 19  1  0  0  0  0
 17 19  2  0  0  0  0
 18 19  2  0  0  0  0
  1 21  1  0  0  0  0
  2 22  1  0  0  0  0
  3 23  1  0  0  0  0
  4 24  1  0  0  0  0
  5 25  1  0  0  0  0
  6 26  1  0  0  0  0
  7 27  1  0  0  0  0
 13 28  1  0  0  0  0
 13 29  1  0  0  0  0
 13 30  1  0  0  0  0
 14 31  1  0  0  0  0
 14 32  1  0  0  0  0
 15 33  1  0  0  0  0
 16 34  1  0  0  0  0
M  END
> <FRED Chemgauss4 score>
-7.124891

$$$$
C85200009	P133290367
  -OEChem-05122015073D

 20 20  0     0  0  0  0  0  0999 V2000
   56.6564  155.1611   -6.9089 C   0  0  0  0  0  0  0  0  0  0  0  0
   55.5304  156.1449   -5.3940 C   0  0  0  0  0  0  0  0  0  0  0  0
   55.7119  154.2485   -6.5019 C   0  0  0  0  0  0  0  0  0  0  0  0
   53.1277  155.4344   -4.0262 C   0  0  0  0  0  0  0  0  0  0  0  0
   55.4339  152.8684   -6.9349 C   0  0  0  0  0  0  0  0  0  0  0  0
   53.8850  154.3647   -4.7787 C   0  0  0  0  0  0  0  0  0  0  0  0
   56.5383  156.3394   -6.2152 N   0  0  0  0  0  0  0  0  0  0  0  0
   54.9984  154.8929   -5.5309 N   0  0  0  0  0  0  0  0  0  0  0  0
   52.0955  155.9626   -4.7722 N   0  0  0  0  0  0  0  0  0  0  0  0
   53.3982  155.7968   -2.8849 O   0  0  0  0  0  0  0  0  0  0  0  0
   54.7805  152.8747   -8.2053 O   0  0  0  0  0  0  0  0  0  0  0  0
   57.4165  155.0319   -7.6659 H   0  0  0  0  0  0  0  0  0  0  0  0
   55.1454  156.8655   -4.6854 H   0  0  0  0  0  0  0  0  0  0  0  0
   56.3555  152.2657   -7.0320 H   0  0  0  0  0  0  0  0  0  0  0  0
   54.7828  152.3322   -6.2204 H   0  0  0  0  0  0  0  0  0  0  0  0
   53.2107  153.8568   -5.4774 H   0  0  0  0  0  0  0  0  0  0  0  0
   54.2734  153.6184   -4.0765 H   0  0  0  0  0  0  0  0  0  0  0  0
   51.8914  155.6482   -5.7156 H   0  0  0  0  0  0  0  0  0  0  0  0
   51.4986  156.6913   -4.3950 H   0  0  0  0  0  0  0  0  0  0  0  0
   54.6245  151.9469   -8.4364 H   0  0  0  0  0  0  0  0  0  0  0  0
  1  3  2  0  0  0  0
  1  7  1  0  0  0  0
  2  7  2  0  0  0  0
  2  8  1  0  0  0  0
  3  5  1  0  0  0  0
  3  8  1  0  0  0  0
  4  6  1  0  0  0  0
  4  9  1  0  0  0  0
  4 10  2  0  0  0  0
  5 11  1  0  0  0  0
  6  8  1  0  0  0  0
  1 12  1  0  0  0  0
  2 13  1  0  0  0  0
  5 14  1  0  0  0  0
  5 15  1  0  0  0  0
  6 16  1  0  0  0  0
  6 17  1  0  0  0  0
  9 18  1  0  0  0  0
  9 19  1  0  0  0  0
 11 20  1  0  0  0  0
M  END
> <FRED Chemgauss4 score>
-7.124331

$$$$
C83591180	P130750978
  -OEChem-05122015073D

 23 23  0     0  0  0  0  0  0999 V2000
   54.9346  154.5367   -5.0916 C   0  0  0  0  0  0  0  0  0  0  0  0
   56.4680  155.6549   -6.2119 C   0  0  0  0  0  0  0  0  0  0  0  0
   55.0353  155.8342   -4.6480 C   0  0  0  0  0  0  0  0  0  0  0  0
   54.1147  159.8793   -4.4304 C   0  0  0  0  0  0  0  0  0  0  0  0
   56.1382  153.2625   -6.8833 C   0  0  0  0  0  0  0  0  0  0  0  0
   55.9913  156.5251   -5.3496 N   0  0  0  0  0  0  0  0  0  0  0  0
   55.8582  154.4369   -6.0938 N   0  0  0  0  0  0  0  0  0  0  0  0
   54.7723  160.7890   -5.2128 N   0  0  0  0  0  0  0  0  0  0  0  0
   53.7982  158.6767   -5.0061 N   0  0  0  0  0  0  0  0  0  0  0  0
   53.1210  157.6467   -4.2523 N   0  0  0  0  0  0  0  0  0  0  0  0
   53.2784  155.5490   -2.7430 O   0  0  0  0  0  0  0  0  0  0  0  0
   55.0181  157.3543   -2.5423 O   0  0  0  0  0  0  0  0  0  0  0  0
   53.7142  160.2199   -2.8440 S   0  0  0  0  0  0  0  0  0  0  0  0
   54.0946  156.5821   -3.3513 S   0  0  0  0  0  0  0  0  0  0  0  0
   54.3099  153.7060   -4.7935 H   0  0  0  0  0  0  0  0  0  0  0  0
   57.2455  155.8471   -6.9389 H   0  0  0  0  0  0  0  0  0  0  0  0
   55.4849  153.2816   -7.7596 H   0  0  0  0  0  0  0  0  0  0  0  0
   57.1881  153.2711   -7.1890 H   0  0  0  0  0  0  0  0  0  0  0  0
   55.9475  152.3690   -6.2823 H   0  0  0  0  0  0  0  0  0  0  0  0
   55.0145  160.5821   -6.1759 H   0  0  0  0  0  0  0  0  0  0  0  0
   55.0387  161.7000   -4.8548 H   0  0  0  0  0  0  0  0  0  0  0  0
   54.0340  158.4559   -5.9675 H   0  0  0  0  0  0  0  0  0  0  0  0
   52.2088  157.3389   -4.6088 H   0  0  0  0  0  0  0  0  0  0  0  0
  1  3  2  0  0  0  0
  1  7  1  0  0  0  0
  2  6  2  0  0  0  0
  2  7  1  0  0  0  0
  3  6  1  0  0  0  0
  3 14  1  0  0  0  0
  4  8  1  0  0  0  0
  4  9  1  0  0  0  0
  4 13  2  0  0  0  0
  5  7  1  0  0  0  0
  9 10  1  0  0  0  0
 10 14  1  0  0  0  0
 11 14  2  0  0  0  0
 12 14  2  0  0  0  0
  1 15  1  0  0  0  0
  2 16  1  0  0  0  0
  5 17  1  0  0  0  0
  5 18  1  0  0  0  0
  5 19  1  0  0  0  0
  8 20  1  0  0  0  0
  8 21  1  0  0  0  0
  9 22  1  0  0  0  0
 10 23  1  0  0  0  0
M  END
> <FRED Chemgauss4 score>
-7.121189

$$$$
C71215192	P109951876
  -OEChem-05122015073D

 34 35  0     0  0  0  0  0  0999 V2000
   54.3102  156.7153   -2.9027 C   0  0  0  0  0  0  0  0  0  0  0  0
   54.3985  155.5782   -3.6616 C   0  0  0  0  0  0  0  0  0  0  0  0
   55.4299  155.3142   -4.6774 C   0  0  0  0  0  0  0  0  0  0  0  0
   54.2628  158.2592   -5.6684 C   0  0  0  0  0  0  0  0  0  0  0  0
   57.3880  155.0909   -6.9564 C   0  0  0  0  0  0  0  0  0  0  0  0
   57.8187  157.0125   -5.3745 C   0  0  0  0  0  0  0  0  0  0  0  0
   58.7844  155.2686   -7.5355 C   0  0  0  0  0  0  0  0  0  0  0  0
   59.2116  157.1739   -5.9669 C   0  0  0  0  0  0  0  0  0  0  0  0
   56.8448  156.4101   -6.3943 C   0  0  0  0  0  0  0  0  0  0  0  0
   54.4137  156.9219   -6.3560 C   0  0  0  0  0  0  0  0  0  0  0  0
   52.7076  155.4049   -2.3621 N   0  5  0  0  0  0  0  0  0  0  0  0
   53.2518  156.6232   -2.0788 N   0  0  0  0  0  0  0  0  0  0  0  0
   53.3977  154.7423   -3.3348 N   0  0  0  0  0  0  0  0  0  0  0  0
   53.0263  158.4079   -5.0778 N   0  0  0  0  0  0  0  0  0  0  0  0
   55.5416  156.1892   -5.7709 N   0  0  0  0  0  0  0  0  0  0  0  0
   59.6782  155.8565   -6.4935 N   0  3  0  0  0  0  0  0  0  0  0  0
   56.1455  154.3320   -4.4843 O   0  0  0  0  0  0  0  0  0  0  0  0
   55.1550  159.1005   -5.6024 O   0  0  0  0  0  0  0  0  0  0  0  0
   54.9608  157.5795   -2.9223 H   0  0  0  0  0  0  0  0  0  0  0  0
   56.7156  154.7083   -7.7339 H   0  0  0  0  0  0  0  0  0  0  0  0
   57.4111  154.3300   -6.1649 H   0  0  0  0  0  0  0  0  0  0  0  0
   57.8685  156.3727   -4.4834 H   0  0  0  0  0  0  0  0  0  0  0  0
   57.4510  157.9882   -5.0345 H   0  0  0  0  0  0  0  0  0  0  0  0
   59.2225  154.3101   -7.8289 H   0  0  0  0  0  0  0  0  0  0  0  0
   58.7917  155.9482   -8.3939 H   0  0  0  0  0  0  0  0  0  0  0  0
   59.2259  157.8830   -6.8010 H   0  0  0  0  0  0  0  0  0  0  0  0
   59.9353  157.4897   -5.2099 H   0  0  0  0  0  0  0  0  0  0  0  0
   56.6752  157.1146   -7.2041 H   0  0  0  0  0  0  0  0  0  0  0  0
   54.6114  157.0517   -7.4235 H   0  0  0  0  0  0  0  0  0  0  0  0
   53.5036  156.3329   -6.2139 H   0  0  0  0  0  0  0  0  0  0  0  0
   52.3321  157.6698   -5.1287 H   0  0  0  0  0  0  0  0  0  0  0  0
   52.7621  159.2483   -4.5735 H   0  0  0  0  0  0  0  0  0  0  0  0
   59.7787  155.1918   -5.7135 H   0  0  0  0  0  0  0  0  0  0  0  0
   60.6233  155.9673   -6.8855 H   0  0  0  0  0  0  0  0  0  0  0  0
  1  2  1  0  0  0  0
  1 12  2  0  0  0  0
  2  3  1  0  0  0  0
  2 13  2  0  0  0  0
  3 15  1  0  0  0  0
  3 17  2  0  0  0  0
  4 10  1  0  0  0  0
  4 14  1  0  0  0  0
  4 18  2  0  0  0  0
  5  7  1  0  0  0  0
  5  9  1  0  0  0  0
  6  8  1  0  0  0  0
  6  9  1  0  0  0  0
  7 16  1  0  0  0  0
  8 16  1  0  0  0  0
  9 15  1  0  0  0  0
 10 15  1  0  0  0  0
 11 12  1  0  0  0  0
 11 13  1  0  0  0  0
  1 19  1  0  0  0  0
  5 20  1  0  0  0  0
  5 21  1  0  0  0  0
  6 22  1  0  0  0  0
  6 23  1  0  0  0  0
  7 24  1  0  0  0  0
  7 25  1  0  0  0  0
  8 26  1  0  0  0  0
  8 27  1  0  0  0  0
  9 28  1  0  0  0  0
 10 29  1  0  0  0  0
 10 30  1  0  0  0  0
 14 31  1  0  0  0  0
 14 32  1  0  0  0  0
 16 33  1  0  0  0  0
 16 34  1  0  0  0  0
M  CHG  2  11  -1  16   1
M  END
> <FRED Chemgauss4 score>
-7.107073

$$$$
C88023610	P137670459
  -OEChem-05122015073D

 29 29  0     0  0  0  0  0  0999 V2000
   54.6750  157.0992   -3.1164 C   0  0  0  0  0  0  0  0  0  0  0  0
   53.6727  156.0272   -3.3159 C   0  0  0  0  0  0  0  0  0  0  0  0
   56.4438  156.6152   -6.2586 C   0  0  0  0  0  0  0  0  0  0  0  0
   57.2668  158.6634   -5.0503 C   0  0  0  0  0  0  0  0  0  0  0  0
   56.0688  155.9944   -4.9146 C   0  0  0  0  0  0  0  0  0  0  0  0
   56.8813  158.0120   -3.7251 C   0  0  0  0  0  0  0  0  0  0  0  0
   57.5918  157.6329   -6.1442 C   0  0  0  0  0  0  0  0  0  0  0  0
   58.9408  156.9502   -5.8973 C   0  0  0  0  0  0  0  0  0  0  0  0
   55.8105  157.0340   -3.9119 N   0  0  0  0  0  0  0  0  0  0  0  0
   51.7407  155.4541   -4.5633 N   0  0  0  0  0  0  0  0  0  0  0  0
   52.7401  156.3605   -4.2705 N   0  0  0  0  0  0  0  0  0  0  0  0
   54.3937  157.9321   -2.2645 O   0  0  0  0  0  0  0  0  0  0  0  0
   53.7368  154.9929   -2.6659 O   0  0  0  0  0  0  0  0  0  0  0  0
   57.6930  158.3412   -7.3836 O   0  0  0  0  0  0  0  0  0  0  0  0
   56.7334  155.8113   -6.9540 H   0  0  0  0  0  0  0  0  0  0  0  0
   55.5490  157.0990   -6.6794 H   0  0  0  0  0  0  0  0  0  0  0  0
   56.4393  159.3137   -5.3725 H   0  0  0  0  0  0  0  0  0  0  0  0
   58.1414  159.3129   -4.8871 H   0  0  0  0  0  0  0  0  0  0  0  0
   55.1538  155.3957   -5.0035 H   0  0  0  0  0  0  0  0  0  0  0  0
   56.8651  155.3172   -4.5928 H   0  0  0  0  0  0  0  0  0  0  0  0
   57.7604  157.5366   -3.2756 H   0  0  0  0  0  0  0  0  0  0  0  0
   56.5193  158.7625   -3.0113 H   0  0  0  0  0  0  0  0  0  0  0  0
   59.7246  157.7015   -5.8226 H   0  0  0  0  0  0  0  0  0  0  0  0
   59.1680  156.2767   -6.7213 H   0  0  0  0  0  0  0  0  0  0  0  0
   58.9005  156.3814   -4.9704 H   0  0  0  0  0  0  0  0  0  0  0  0
   50.9087  155.9958   -4.7943 H   0  0  0  0  0  0  0  0  0  0  0  0
   51.5248  154.9622   -3.6971 H   0  0  0  0  0  0  0  0  0  0  0  0
   52.7456  157.2423   -4.7739 H   0  0  0  0  0  0  0  0  0  0  0  0
   57.8749  157.6752   -8.0625 H   0  0  0  0  0  0  0  0  0  0  0  0
  1  2  1  0  0  0  0
  1  9  1  0  0  0  0
  1 12  2  0  0  0  0
  2 11  1  0  0  0  0
  2 13  2  0  0  0  0
  3  5  1  0  0  0  0
  3  7  1  0  0  0  0
  4  6  1  0  0  0  0
  4  7  1  0  0  0  0
  5  9  1  0  0  0  0
  6  9  1  0  0  0  0
  7  8  1  0  0  0  0
  7 14  1  0  0  0  0
 10 11  1  0  0  0  0
  3 15  1  0  0  0  0
  3 16  1  0  0  0  0
  4 17  1  0  0  0  0
  4 18  1  0  0  0  0
  5 19  1  0  0  0  0
  5 20  1  0  0  0  0
  6 21  1  0  0  0  0
  6 22  1  0  0  0  0
  8 23  1  0  0  0  0
  8 24  1  0  0  0  0
  8 25  1  0  0  0  0
 10 26  1  0  0  0  0
 10 27  1  0  0  0  0
 11 28  1  0  0  0  0
 14 29  1  0  0  0  0
M  END
> <FRED Chemgauss4 score>
-7.099605

$$$$
C78452166	P122388941
  -OEChem-05122015073D

 45 46  0     1  0  0  0  0  0999 V2000
   59.0576  159.7184   -7.9292 C   0  0  0  0  0  0  0  0  0  0  0  0
   59.8047  159.6576   -6.7715 C   0  0  0  0  0  0  0  0  0  0  0  0
   59.2796  157.5346   -6.9370 C   0  0  0  0  0  0  0  0  0  0  0  0
   53.7442  156.3722   -3.5400 C   0  0  0  0  0  0  0  0  0  0  0  0
   57.0694  156.2671   -5.2848 C   0  0  0  0  0  0  0  0  0  0  0  0
   53.5730  156.4504   -6.0279 C   0  0  0  0  0  0  0  0  0  0  0  0
   54.7752  155.5357   -6.0799 C   0  0  0  0  0  0  0  0  0  0  0  0
   55.2179  155.9749   -3.6749 C   0  0  1  0  0  0  0  0  0  0  0  0
   60.4631  160.8010   -6.1092 C   0  0  0  0  0  0  0  0  0  0  0  0
   56.7007  153.9524   -3.5522 C   0  0  0  0  0  0  0  0  0  0  0  0
   55.5283  154.7766   -1.4907 C   0  0  0  0  0  0  0  0  0  0  0  0
   57.7442  155.5433   -6.4223 C   0  0  0  0  0  0  0  0  0  0  0  0
   55.4403  154.6174   -3.0059 C   0  0  0  0  0  0  0  0  0  0  0  0
   59.1873  156.0395   -6.6299 C   0  0  1  0  0  0  0  0  0  0  0  0
   59.8520  155.2356   -7.7530 C   0  0  0  0  0  0  0  0  0  0  0  0
   59.9327  158.4062   -6.2009 N   0  0  0  0  0  0  0  0  0  0  0  0
   53.0090  156.4924   -4.6971 N   0  0  0  0  0  0  0  0  0  0  0  0
   55.7263  155.9592   -5.0521 N   0  0  0  0  0  0  0  0  0  0  0  0
   53.2330  156.5197   -2.4270 O   0  0  0  0  0  0  0  0  0  0  0  0
   57.7142  157.0843   -4.6221 O   0  0  0  0  0  0  0  0  0  0  0  0
   59.9168  155.7320   -5.4319 O   0  0  0  0  0  0  0  0  0  0  0  0
   61.1576  155.5504   -7.8995 F   0  0  0  0  0  0  0  0  0  0  0  0
   59.7874  153.9073   -7.5002 F   0  0  0  0  0  0  0  0  0  0  0  0
   59.2428  155.4472   -8.9414 F   0  0  0  0  0  0  0  0  0  0  0  0
   58.4890  158.1508   -8.3300 S   0  0  0  0  0  0  0  0  0  0  0  0
   58.8249  160.5783   -8.5415 H   0  0  0  0  0  0  0  0  0  0  0  0
   53.8487  157.4770   -6.2922 H   0  0  0  0  0  0  0  0  0  0  0  0
   52.7911  156.1134   -6.7150 H   0  0  0  0  0  0  0  0  0  0  0  0
   54.4917  154.4998   -5.8595 H   0  0  0  0  0  0  0  0  0  0  0  0
   55.2077  155.5490   -7.0813 H   0  0  0  0  0  0  0  0  0  0  0  0
   55.7873  156.7281   -3.1162 H   0  0  0  0  0  0  0  0  0  0  0  0
   59.7916  161.2748   -5.3747 H   0  0  0  0  0  0  0  0  0  0  0  0
   61.3813  160.4983   -5.5776 H   0  0  0  0  0  0  0  0  0  0  0  0
   60.7706  161.5762   -6.8316 H   0  0  0  0  0  0  0  0  0  0  0  0
   57.5917  154.5553   -3.3458 H   0  0  0  0  0  0  0  0  0  0  0  0
   56.6294  153.8139   -4.6361 H   0  0  0  0  0  0  0  0  0  0  0  0
   56.8461  152.9667   -3.0977 H   0  0  0  0  0  0  0  0  0  0  0  0
   56.3739  155.4114   -1.2042 H   0  0  0  0  0  0  0  0  0  0  0  0
   55.6563  153.8029   -1.0060 H   0  0  0  0  0  0  0  0  0  0  0  0
   54.6144  155.2306   -1.0930 H   0  0  0  0  0  0  0  0  0  0  0  0
   57.6962  154.4749   -6.2041 H   0  0  0  0  0  0  0  0  0  0  0  0
   57.1351  155.7444   -7.3081 H   0  0  0  0  0  0  0  0  0  0  0  0
   54.5819  153.9767   -3.2379 H   0  0  0  0  0  0  0  0  0  0  0  0
   52.0052  156.6190   -4.6106 H   0  0  0  0  0  0  0  0  0  0  0  0
   59.5056  156.2537   -4.7295 H   0  0  0  0  0  0  0  0  0  0  0  0
  1  2  2  0  0  0  0
  1 25  1  0  0  0  0
  2  9  1  0  0  0  0
  2 16  1  0  0  0  0
  3 14  1  0  0  0  0
  3 16  2  0  0  0  0
  3 25  1  0  0  0  0
  4  8  1  0  0  0  0
  4 17  1  0  0  0  0
  4 19  2  0  0  0  0
  5 12  1  0  0  0  0
  5 18  1  0  0  0  0
  5 20  2  0  0  0  0
  6  7  1  0  0  0  0
  6 17  1  0  0  0  0
  7 18  1  0  0  0  0
  8 13  1  0  0  0  0
  8 18  1  0  0  0  0
 10 13  1  0  0  0  0
 11 13  1  0  0  0  0
 12 14  1  0  0  0  0
 14 15  1  0  0  0  0
 14 21  1  0  0  0  0
 15 22  1  0  0  0  0
 15 23  1  0  0  0  0
 15 24  1  0  0  0  0
  1 26  1  0  0  0  0
  6 27  1  0  0  0  0
  6 28  1  0  0  0  0
  7 29  1  0  0  0  0
  7 30  1  0  0  0  0
  8 31  1  0  0  0  0
  9 32  1  0  0  0  0
  9 33  1  0  0  0  0
  9 34  1  0  0  0  0
 10 35  1  0  0  0  0
 10 36  1  0  0  0  0
 10 37  1  0  0  0  0
 11 38  1  0  0  0  0
 11 39  1  0  0  0  0
 11 40  1  0  0  0  0
 12 41  1  0  0  0  0
 12 42  1  0  0  0  0
 13 43  1  0  0  0  0
 17 44  1  0  0  0  0
 21 45  1  0  0  0  0
M  END
> <FRED Chemgauss4 score>
-7.097557

$$$$
C40710778	P61812575
  -OEChem-05122015073D

 28 28  0     1  0  0  0  0  0999 V2000
   57.2856  155.9878   -5.8625 C   0  0  0  0  0  0  0  0  0  0  0  0
   55.2696  155.5241   -5.8662 C   0  0  0  0  0  0  0  0  0  0  0  0
   58.5904  157.4207   -8.1813 C   0  0  0  0  0  0  0  0  0  0  0  0
   58.5292  156.7525   -5.7164 C   0  0  0  0  0  0  0  0  0  0  0  0
   59.3578  156.8091   -7.0199 C   0  0  0  0  0  0  0  0  0  0  0  0
   53.2285  155.0344   -4.4093 C   0  0  0  0  0  0  0  0  0  0  0  0
   53.6553  155.9834   -3.2942 C   0  0  0  0  0  0  0  0  0  0  0  0
   53.7591  155.4453   -5.7922 C   0  0  1  0  0  0  0  0  0  0  0  0
   56.0609  156.5362   -5.6151 N   0  0  0  0  0  0  0  0  0  0  0  0
   57.2821  154.7082   -6.2476 N   0  0  0  0  0  0  0  0  0  0  0  0
   53.1672  156.7049   -6.1893 N   0  0  0  0  0  0  0  0  0  0  0  0
   55.9174  154.3931   -6.2503 O   0  0  0  0  0  0  0  0  0  0  0  0
   53.1321  155.5042   -2.0620 O   0  0  0  0  0  0  0  0  0  0  0  0
   57.6709  156.8615   -8.3816 H   0  0  0  0  0  0  0  0  0  0  0  0
   58.3218  158.4606   -7.9696 H   0  0  0  0  0  0  0  0  0  0  0  0
   59.2014  157.4057   -9.0892 H   0  0  0  0  0  0  0  0  0  0  0  0
   58.3337  157.7973   -5.3892 H   0  0  0  0  0  0  0  0  0  0  0  0
   59.1782  156.3340   -4.9161 H   0  0  0  0  0  0  0  0  0  0  0  0
   60.2706  157.3919   -6.8464 H   0  0  0  0  0  0  0  0  0  0  0  0
   59.6761  155.7960   -7.2939 H   0  0  0  0  0  0  0  0  0  0  0  0
   52.1304  154.9997   -4.4356 H   0  0  0  0  0  0  0  0  0  0  0  0
   53.5330  154.0109   -4.1535 H   0  0  0  0  0  0  0  0  0  0  0  0
   54.7446  156.0326   -3.2060 H   0  0  0  0  0  0  0  0  0  0  0  0
   53.2643  156.9907   -3.4687 H   0  0  0  0  0  0  0  0  0  0  0  0
   53.3959  154.7164   -6.5276 H   0  0  0  0  0  0  0  0  0  0  0  0
   52.2311  156.9120   -5.8942 H   0  0  0  0  0  0  0  0  0  0  0  0
   53.6162  157.2435   -6.9068 H   0  0  0  0  0  0  0  0  0  0  0  0
   53.4198  156.1268   -1.3751 H   0  0  0  0  0  0  0  0  0  0  0  0
  1  4  1  0  0  0  0
  1  9  1  0  0  0  0
  1 10  2  0  0  0  0
  2  8  1  0  0  0  0
  2  9  2  0  0  0  0
  2 12  1  0  0  0  0
  3  5  1  0  0  0  0
  4  5  1  0  0  0  0
  6  7  1  0  0  0  0
  6  8  1  0  0  0  0
  7 13  1  0  0  0  0
  8 11  1  0  0  0  0
 10 12  1  0  0  0  0
  3 14  1  0  0  0  0
  3 15  1  0  0  0  0
  3 16  1  0  0  0  0
  4 17  1  0  0  0  0
  4 18  1  0  0  0  0
  5 19  1  0  0  0  0
  5 20  1  0  0  0  0
  6 21  1  0  0  0  0
  6 22  1  0  0  0  0
  7 23  1  0  0  0  0
  7 24  1  0  0  0  0
  8 25  1  0  0  0  0
 11 26  1  0  0  0  0
 11 27  1  0  0  0  0
 13 28  1  0  0  0  0
M  END
> <FRED Chemgauss4 score>
-7.096845

$$$$
C87448699	P136806035
  -OEChem-05122015073D

 29 29  0     0  0  0  0  0  0999 V2000
   54.2908  156.8169   -4.1036 C   0  0  0  0  0  0  0  0  0  0  0  0
   54.4184  155.2260   -5.4488 C   0  0  0  0  0  0  0  0  0  0  0  0
   54.6856  157.8298   -3.0910 C   0  0  0  0  0  0  0  0  0  0  0  0
   54.8119  154.0962   -6.3058 C   0  0  0  0  0  0  0  0  0  0  0  0
   56.3977  160.6496   -2.6973 C   0  0  0  0  0  0  0  0  0  0  0  0
   56.5461  159.2135   -2.2079 C   0  0  0  0  0  0  0  0  0  0  0  0
   54.9446  161.0341   -2.9408 C   0  0  0  0  0  0  0  0  0  0  0  0
   55.1689  155.9023   -4.6105 N   0  0  0  0  0  0  0  0  0  0  0  0
   53.0441  156.7490   -4.5755 N   0  0  0  0  0  0  0  0  0  0  0  0
   53.1527  155.7235   -5.4338 N   0  0  0  0  0  0  0  0  0  0  0  0
   53.1184  162.8066   -3.6986 N   0  0  0  0  0  0  0  0  0  0  0  0
   56.0078  158.2569   -3.1355 N   0  0  0  0  0  0  0  0  0  0  0  0
   53.8548  158.2157   -2.2728 O   0  0  0  0  0  0  0  0  0  0  0  0
   55.2398  163.5874   -2.4711 O   0  0  0  0  0  0  0  0  0  0  0  0
   55.4180  162.7541   -4.8500 O   0  0  0  0  0  0  0  0  0  0  0  0
   54.8112  162.6923   -3.5318 S   0  0  0  0  0  0  0  0  0  0  0  0
   54.6714  153.1313   -5.7881 H   0  0  0  0  0  0  0  0  0  0  0  0
   54.2268  154.0580   -7.2424 H   0  0  0  0  0  0  0  0  0  0  0  0
   55.8713  154.1552   -6.6151 H   0  0  0  0  0  0  0  0  0  0  0  0
   56.9631  160.7645   -3.6302 H   0  0  0  0  0  0  0  0  0  0  0  0
   56.8456  161.3408   -1.9725 H   0  0  0  0  0  0  0  0  0  0  0  0
   57.5981  158.9616   -2.0405 H   0  0  0  0  0  0  0  0  0  0  0  0
   56.0079  159.0806   -1.2643 H   0  0  0  0  0  0  0  0  0  0  0  0
   54.4842  160.3904   -3.6963 H   0  0  0  0  0  0  0  0  0  0  0  0
   54.3527  160.9800   -2.0225 H   0  0  0  0  0  0  0  0  0  0  0  0
   52.3380  155.4291   -5.9594 H   0  0  0  0  0  0  0  0  0  0  0  0
   52.6108  163.3993   -3.0301 H   0  0  0  0  0  0  0  0  0  0  0  0
   52.7322  162.8316   -4.6503 H   0  0  0  0  0  0  0  0  0  0  0  0
   56.6507  157.8404   -3.8068 H   0  0  0  0  0  0  0  0  0  0  0  0
  1  3  1  0  0  0  0
  1  8  1  0  0  0  0
  1  9  2  0  0  0  0
  2  4  1  0  0  0  0
  2  8  2  0  0  0  0
  2 10  1  0  0  0  0
  3 12  1  0  0  0  0
  3 13  2  0  0  0  0
  5  6  1  0  0  0  0
  5  7  1  0  0  0  0
  6 12  1  0  0  0  0
  7 16  1  0  0  0  0
  9 10  1  0  0  0  0
 11 16  1  0  0  0  0
 14 16  2  0  0  0  0
 15 16  2  0  0  0  0
  4 17  1  0  0  0  0
  4 18  1  0  0  0  0
  4 19  1  0  0  0  0
  5 20  1  0  0  0  0
  5 21  1  0  0  0  0
  6 22  1  0  0  0  0
  6 23  1  0  0  0  0
  7 24  1  0  0  0  0
  7 25  1  0  0  0  0
 10 26  1  0  0  0  0
 11 27  1  0  0  0  0
 11 28  1  0  0  0  0
 12 29  1  0  0  0  0
M  END
> <FRED Chemgauss4 score>
-7.093848

$$$$
C86157456	P134917516
  -OEChem-05122015073D

 28 28  0     0  0  0  0  0  0999 V2000
   60.9118  161.8912   -6.7914 C   0  0  0  0  0  0  0  0  0  0  0  0
   60.7743  162.0458   -5.6088 C   0  0  0  0  0  0  0  0  0  0  0  0
   54.8906  158.3451   -4.1800 C   0  0  0  0  0  0  0  0  0  0  0  0
   55.4830  159.1063   -2.3288 C   0  0  0  0  0  0  0  0  0  0  0  0
   57.6852  161.5776   -1.9283 C   0  0  0  0  0  0  0  0  0  0  0  0
   58.6369  159.2850   -1.5814 C   0  0  0  0  0  0  0  0  0  0  0  0
   60.6115  162.2367   -4.1654 C   0  0  0  0  0  0  0  0  0  0  0  0
   56.2398  159.6808   -1.1664 C   0  0  0  0  0  0  0  0  0  0  0  0
   59.0904  161.9948   -2.3247 C   0  0  0  0  0  0  0  0  0  0  0  0
   55.9774  158.8356   -3.5145 N   0  0  0  0  0  0  0  0  0  0  0  0
   54.1611  158.7877   -2.3006 N   0  0  0  0  0  0  0  0  0  0  0  0
   53.7548  158.2952   -3.4807 N   0  0  0  0  0  0  0  0  0  0  0  0
   59.2629  161.8533   -3.7422 N   0  0  0  0  0  0  0  0  0  0  0  0
   57.5259  160.2337   -1.5724 N   0  0  0  0  0  0  0  0  0  0  0  0
   56.7606  162.3947   -1.9274 O   0  0  0  0  0  0  0  0  0  0  0  0
   61.0333  161.7543   -7.8405 H   0  0  0  0  0  0  0  0  0  0  0  0
   54.9451  158.0169   -5.2097 H   0  0  0  0  0  0  0  0  0  0  0  0
   59.1305  159.2753   -0.6062 H   0  0  0  0  0  0  0  0  0  0  0  0
   59.3685  159.5670   -2.3434 H   0  0  0  0  0  0  0  0  0  0  0  0
   58.2722  158.2781   -1.8014 H   0  0  0  0  0  0  0  0  0  0  0  0
   60.7863  163.2834   -3.8981 H   0  0  0  0  0  0  0  0  0  0  0  0
   61.3445  161.6323   -3.6216 H   0  0  0  0  0  0  0  0  0  0  0  0
   55.6644  160.4811   -0.6885 H   0  0  0  0  0  0  0  0  0  0  0  0
   56.4292  158.9170   -0.4048 H   0  0  0  0  0  0  0  0  0  0  0  0
   59.2596  163.0452   -2.0743 H   0  0  0  0  0  0  0  0  0  0  0  0
   59.8298  161.3540   -1.8374 H   0  0  0  0  0  0  0  0  0  0  0  0
   52.7991  157.9990   -3.6587 H   0  0  0  0  0  0  0  0  0  0  0  0
   58.5891  162.4434   -4.2446 H   0  0  0  0  0  0  0  0  0  0  0  0
  1  2  3  0  0  0  0
  2  7  1  0  0  0  0
  3 10  2  0  0  0  0
  3 12  1  0  0  0  0
  4  8  1  0  0  0  0
  4 10  1  0  0  0  0
  4 11  2  0  0  0  0
  5  9  1  0  0  0  0
  5 14  1  0  0  0  0
  5 15  2  0  0  0  0
  6 14  1  0  0  0  0
  7 13  1  0  0  0  0
  8 14  1  0  0  0  0
  9 13  1  0  0  0  0
 11 12  1  0  0  0  0
  1 16  1  0  0  0  0
  3 17  1  0  0  0  0
  6 18  1  0  0  0  0
  6 19  1  0  0  0  0
  6 20  1  0  0  0  0
  7 21  1  0  0  0  0
  7 22  1  0  0  0  0
  8 23  1  0  0  0  0
  8 24  1  0  0  0  0
  9 25  1  0  0  0  0
  9 26  1  0  0  0  0
 12 27  1  0  0  0  0
 13 28  1  0  0  0  0
M  END
> <FRED Chemgauss4 score>
-7.091580

$$$$
C61808721	P94689477
  -OEChem-05122015073D

 33 33  0     1  0  0  0  0  0999 V2000
   56.6398  157.3773   -5.6432 C   0  0  0  0  0  0  0  0  0  0  0  0
   53.3725  157.6342   -5.8334 C   0  0  0  0  0  0  0  0  0  0  0  0
   54.2469  156.2490   -3.3037 C   0  0  0  0  0  0  0  0  0  0  0  0
   58.2120  160.1836   -3.0232 C   0  0  0  0  0  0  0  0  0  0  0  0
   58.5529  158.8062   -4.9551 C   0  0  0  0  0  0  0  0  0  0  0  0
   57.0747  159.2638   -2.5922 C   0  0  0  0  0  0  0  0  0  0  0  0
   57.4129  157.9099   -4.4828 C   0  0  1  0  0  0  0  0  0  0  0  0
   54.3529  156.5513   -6.2212 C   0  0  0  0  0  0  0  0  0  0  0  0
   55.4249  155.7940   -4.1340 C   0  0  0  0  0  0  0  0  0  0  0  0
   59.2073  159.4483   -3.8104 N   0  0  0  0  0  0  0  0  0  0  0  0
   52.0691  157.2863   -6.1162 N   0  0  0  0  0  0  0  0  0  0  0  0
   53.3161  155.2486   -3.1227 N   0  0  0  0  0  0  0  0  0  0  0  0
   55.5165  156.6050   -5.3454 N   0  0  0  0  0  0  0  0  0  0  0  0
   57.0183  157.6367   -6.7887 O   0  0  0  0  0  0  0  0  0  0  0  0
   53.6937  158.6856   -5.2863 O   0  0  0  0  0  0  0  0  0  0  0  0
   54.1497  157.3679   -2.8071 O   0  0  0  0  0  0  0  0  0  0  0  0
   56.4610  158.6639   -3.7350 O   0  0  0  0  0  0  0  0  0  0  0  0
   57.8164  161.0119   -3.6235 H   0  0  0  0  0  0  0  0  0  0  0  0
   58.6948  160.6141   -2.1399 H   0  0  0  0  0  0  0  0  0  0  0  0
   59.2901  158.2153   -5.5100 H   0  0  0  0  0  0  0  0  0  0  0  0
   58.1822  159.5808   -5.6390 H   0  0  0  0  0  0  0  0  0  0  0  0
   57.4264  158.4778   -1.9130 H   0  0  0  0  0  0  0  0  0  0  0  0
   56.3071  159.8393   -2.0653 H   0  0  0  0  0  0  0  0  0  0  0  0
   57.7707  157.0641   -3.8841 H   0  0  0  0  0  0  0  0  0  0  0  0
   54.6970  156.6864   -7.2502 H   0  0  0  0  0  0  0  0  0  0  0  0
   53.8786  155.5723   -6.1116 H   0  0  0  0  0  0  0  0  0  0  0  0
   55.3107  154.7488   -4.4340 H   0  0  0  0  0  0  0  0  0  0  0  0
   56.3469  155.9190   -3.5598 H   0  0  0  0  0  0  0  0  0  0  0  0
   59.9211  160.0945   -4.1452 H   0  0  0  0  0  0  0  0  0  0  0  0
   51.8483  156.3900   -6.5372 H   0  0  0  0  0  0  0  0  0  0  0  0
   51.2867  157.9016   -5.9171 H   0  0  0  0  0  0  0  0  0  0  0  0
   53.4564  154.3272   -3.5236 H   0  0  0  0  0  0  0  0  0  0  0  0
   52.4648  155.3882   -2.5879 H   0  0  0  0  0  0  0  0  0  0  0  0
  1  7  1  0  0  0  0
  1 13  1  0  0  0  0
  1 14  2  0  0  0  0
  2  8  1  0  0  0  0
  2 11  1  0  0  0  0
  2 15  2  0  0  0  0
  3  9  1  0  0  0  0
  3 12  1  0  0  0  0
  3 16  2  0  0  0  0
  4  6  1  0  0  0  0
  4 10  1  0  0  0  0
  5  7  1  0  0  0  0
  5 10  1  0  0  0  0
  6 17  1  0  0  0  0
  7 17  1  0  0  0  0
  8 13  1  0  0  0  0
  9 13  1  0  0  0  0
  4 18  1  0  0  0  0
  4 19  1  0  0  0  0
  5 20  1  0  0  0  0
  5 21  1  0  0  0  0
  6 22  1  0  0  0  0
  6 23  1  0  0  0  0
  7 24  1  0  0  0  0
  8 25  1  0  0  0  0
  8 26  1  0  0  0  0
  9 27  1  0  0  0  0
  9 28  1  0  0  0  0
 10 29  1  0  0  0  0
 11 30  1  0  0  0  0
 11 31  1  0  0  0  0
 12 32  1  0  0  0  0
 12 33  1  0  0  0  0
M  END
> <FRED Chemgauss4 score>
-7.086927

$$$$
C34977828	P51916462
  -OEChem-05122015073D

 29 29  0     0  0  0  0  0  0999 V2000
   54.9487  156.5441   -3.8617 C   0  0  0  0  0  0  0  0  0  0  0  0
   53.8006  155.6185   -3.9560 C   0  0  0  0  0  0  0  0  0  0  0  0
   59.0557  154.6985   -6.5964 C   0  0  0  0  0  0  0  0  0  0  0  0
   56.8846  155.8128   -7.0662 C   0  0  0  0  0  0  0  0  0  0  0  0
   58.3842  156.5872   -5.1466 C   0  0  0  0  0  0  0  0  0  0  0  0
   55.9124  155.4623   -5.9410 C   0  0  0  0  0  0  0  0  0  0  0  0
   57.1020  157.3215   -4.7725 C   0  0  0  0  0  0  0  0  0  0  0  0
   58.3189  156.0046   -6.5630 C   0  0  0  0  0  0  0  0  0  0  0  0
   55.9413  156.4298   -4.8345 N   0  0  0  0  0  0  0  0  0  0  0  0
   60.4044  154.8285   -6.8294 N   0  0  0  0  0  0  0  0  0  0  0  0
   51.6342  155.3828   -4.8877 N   0  0  0  0  0  0  0  0  0  0  0  0
   52.7760  156.1388   -4.7118 N   0  0  0  0  0  0  0  0  0  0  0  0
   54.9651  157.3515   -2.9318 O   0  0  0  0  0  0  0  0  0  0  0  0
   53.8362  154.5313   -3.3965 O   0  0  0  0  0  0  0  0  0  0  0  0
   58.4886  153.6242   -6.4127 O   0  0  0  0  0  0  0  0  0  0  0  0
   56.8445  155.0356   -7.8377 H   0  0  0  0  0  0  0  0  0  0  0  0
   56.5546  156.7491   -7.5336 H   0  0  0  0  0  0  0  0  0  0  0  0
   59.2186  157.2950   -5.1037 H   0  0  0  0  0  0  0  0  0  0  0  0
   58.5831  155.8002   -4.4143 H   0  0  0  0  0  0  0  0  0  0  0  0
   54.8866  155.3880   -6.3470 H   0  0  0  0  0  0  0  0  0  0  0  0
   56.1438  154.4678   -5.5146 H   0  0  0  0  0  0  0  0  0  0  0  0
   57.1585  157.7169   -3.7474 H   0  0  0  0  0  0  0  0  0  0  0  0
   56.9721  158.1890   -5.4319 H   0  0  0  0  0  0  0  0  0  0  0  0
   58.8563  156.6646   -7.2445 H   0  0  0  0  0  0  0  0  0  0  0  0
   60.7892  155.7587   -6.9568 H   0  0  0  0  0  0  0  0  0  0  0  0
   61.0306  154.0314   -6.8792 H   0  0  0  0  0  0  0  0  0  0  0  0
   50.8524  156.0349   -4.9359 H   0  0  0  0  0  0  0  0  0  0  0  0
   51.5006  154.8458   -4.0317 H   0  0  0  0  0  0  0  0  0  0  0  0
   52.8127  157.0545   -5.1494 H   0  0  0  0  0  0  0  0  0  0  0  0
  1  2  1  0  0  0  0
  1  9  1  0  0  0  0
  1 13  2  0  0  0  0
  2 12  1  0  0  0  0
  2 14  2  0  0  0  0
  3  8  1  0  0  0  0
  3 10  1  0  0  0  0
  3 15  2  0  0  0  0
  4  6  1  0  0  0  0
  4  8  1  0  0  0  0
  5  7  1  0  0  0  0
  5  8  1  0  0  0  0
  6  9  1  0  0  0  0
  7  9  1  0  0  0  0
 11 12  1  0  0  0  0
  4 16  1  0  0  0  0
  4 17  1  0  0  0  0
  5 18  1  0  0  0  0
  5 19  1  0  0  0  0
  6 20  1  0  0  0  0
  6 21  1  0  0  0  0
  7 22  1  0  0  0  0
  7 23  1  0  0  0  0
  8 24  1  0  0  0  0
 10 25  1  0  0  0  0
 10 26  1  0  0  0  0
 11 27  1  0  0  0  0
 11 28  1  0  0  0  0
 12 29  1  0  0  0  0
M  END
> <FRED Chemgauss4 score>
-7.085103

$$$$
C85962559	P134593572
  -OEChem-05122015073D

 39 40  0     1  0  0  0  0  0999 V2000
   58.7518  161.3656   -3.7471 C   0  0  0  0  0  0  0  0  0  0  0  0
   59.0087  160.6337   -1.4590 C   0  0  0  0  0  0  0  0  0  0  0  0
   59.5518  161.1873   -2.6184 C   0  0  0  0  0  0  0  0  0  0  0  0
   56.8656  160.4367   -2.5569 C   0  0  0  0  0  0  0  0  0  0  0  0
   57.4086  160.9903   -3.7163 C   0  0  0  0  0  0  0  0  0  0  0  0
   57.6656  160.2584   -1.4282 C   0  0  0  0  0  0  0  0  0  0  0  0
   55.5570  154.2360   -5.6271 C   0  0  0  0  0  0  0  0  0  0  0  0
   54.4192  153.6413   -4.8041 C   0  0  0  0  0  0  0  0  0  0  0  0
   56.2272  155.4001   -4.9017 C   0  0  0  0  0  0  0  0  0  0  0  0
   53.4048  154.7063   -4.4065 C   0  0  0  0  0  0  0  0  0  0  0  0
   55.2145  156.4818   -4.5009 C   0  0  1  0  0  0  0  0  0  0  0  0
   54.0644  155.8778   -3.6769 C   0  0  1  0  0  0  0  0  0  0  0  0
   55.9155  157.6093   -3.7382 C   0  0  0  0  0  0  0  0  0  0  0  0
   60.9098  161.5668   -2.6495 N   0  0  0  0  0  0  0  0  0  0  0  0
   55.1170  158.7860   -3.7844 N   0  0  0  0  0  0  0  0  0  0  0  0
   54.9164  159.2864   -1.2579 O   0  0  0  0  0  0  0  0  0  0  0  0
   54.3890  161.1324   -2.8822 O   0  0  0  0  0  0  0  0  0  0  0  0
   53.0813  156.8804   -3.4320 O   0  0  0  0  0  0  0  0  0  0  0  0
   55.1634  159.9615   -2.5177 S   0  0  0  0  0  0  0  0  0  0  0  0
   56.4699  161.2365   -5.1467 Cl  0  0  0  0  0  0  0  0  0  0  0  0
   57.0521  159.5781    0.0376 Cl  0  0  0  0  0  0  0  0  0  0  0  0
   59.1818  161.7981   -4.6482 H   0  0  0  0  0  0  0  0  0  0  0  0
   59.6383  160.4974   -0.5821 H   0  0  0  0  0  0  0  0  0  0  0  0
   56.3000  153.4599   -5.8429 H   0  0  0  0  0  0  0  0  0  0  0  0
   55.1678  154.5831   -6.5922 H   0  0  0  0  0  0  0  0  0  0  0  0
   53.9208  152.8528   -5.3791 H   0  0  0  0  0  0  0  0  0  0  0  0
   54.8273  153.1697   -3.9018 H   0  0  0  0  0  0  0  0  0  0  0  0
   56.7391  155.0204   -4.0080 H   0  0  0  0  0  0  0  0  0  0  0  0
   56.9986  155.8314   -5.5508 H   0  0  0  0  0  0  0  0  0  0  0  0
   52.8824  155.0744   -5.2994 H   0  0  0  0  0  0  0  0  0  0  0  0
   52.6272  154.2652   -3.7709 H   0  0  0  0  0  0  0  0  0  0  0  0
   54.7921  156.9269   -5.4112 H   0  0  0  0  0  0  0  0  0  0  0  0
   54.4413  155.5342   -2.7047 H   0  0  0  0  0  0  0  0  0  0  0  0
   56.8691  157.8007   -4.2091 H   0  0  0  0  0  0  0  0  0  0  0  0
   56.0488  157.3035   -2.7108 H   0  0  0  0  0  0  0  0  0  0  0  0
   61.2987  161.9185   -3.5009 H   0  0  0  0  0  0  0  0  0  0  0  0
   61.4838  161.3904   -1.8499 H   0  0  0  0  0  0  0  0  0  0  0  0
   54.8157  159.1466   -4.7222 H   0  0  0  0  0  0  0  0  0  0  0  0
   52.3960  156.4674   -2.8842 H   0  0  0  0  0  0  0  0  0  0  0  0
  1  3  1  0  0  0  0
  1  5  2  0  0  0  0
  2  3  2  0  0  0  0
  2  6  1  0  0  0  0
  3 14  1  0  0  0  0
  4  5  1  0  0  0  0
  4  6  2  0  0  0  0
  4 19  1  0  0  0  0
  5 20  1  0  0  0  0
  6 21  1  0  0  0  0
  7  8  1  0  0  0  0
  7  9  1  0  0  0  0
  8 10  1  0  0  0  0
  9 11  1  0  0  0  0
 10 12  1  0  0  0  0
 11 12  1  0  0  0  0
 11 13  1  0  0  0  0
 12 18  1  0  0  0  0
 13 15  1  0  0  0  0
 15 19  1  0  0  0  0
 16 19  2  0  0  0  0
 17 19  2  0  0  0  0
  1 22  1  0  0  0  0
  2 23  1  0  0  0  0
  7 24  1  0  0  0  0
  7 25  1  0  0  0  0
  8 26  1  0  0  0  0
  8 27  1  0  0  0  0
  9 28  1  0  0  0  0
  9 29  1  0  0  0  0
 10 30  1  0  0  0  0
 10 31  1  0  0  0  0
 11 32  1  0  0  0  0
 12 33  1  0  0  0  0
 13 34  1  0  0  0  0
 13 35  1  0  0  0  0
 14 36  1  0  0  0  0
 14 37  1  0  0  0  0
 15 38  1  0  0  0  0
 18 39  1  0  0  0  0
M  END
> <FRED Chemgauss4 score>
-7.082635

$$$$
C91503966	P143194116
  -OEChem-05122015073D

 53 56  0     1  0  0  0  0  0999 V2000
   58.5674  158.5056   -8.5740 C   0  0  0  0  0  0  0  0  0  0  0  0
   59.4342  157.4864   -8.2572 C   0  0  0  0  0  0  0  0  0  0  0  0
   57.5517  156.7106   -9.1004 C   0  0  0  0  0  0  0  0  0  0  0  0
   57.2077  154.0915   -7.2408 C   0  0  0  0  0  0  0  0  0  0  0  0
   59.5103  153.1572   -6.6445 C   0  0  0  0  0  0  0  0  0  0  0  0
   59.3693  154.4675   -5.9315 C   0  0  0  0  0  0  0  0  0  0  0  0
   54.5137  154.9811   -5.0589 C   0  0  0  0  0  0  0  0  0  0  0  0
   56.6071  156.2632   -4.4324 C   0  0  0  0  0  0  0  0  0  0  0  0
   53.4791  157.3036   -3.3234 C   0  0  0  0  0  0  0  0  0  0  0  0
   55.0046  154.9532   -6.5068 C   0  0  0  0  0  0  0  0  0  0  0  0
   57.0151  156.2455   -5.9026 C   0  0  0  0  0  0  0  0  0  0  0  0
   54.6270  156.4180   -2.7992 C   0  0  2  0  0  0  0  0  0  0  0  0
   54.3468  157.5826   -4.5742 C   0  0  1  0  0  0  0  0  0  0  0  0
   58.6921  154.2636   -7.2653 C   0  0  0  0  0  0  0  0  0  0  0  0
   55.0722  156.2063   -4.2981 C   0  0  0  0  0  0  0  0  0  0  0  0
   59.2692  154.9740   -8.4573 C   0  0  0  0  0  0  0  0  0  0  0  0
   52.3281  159.1276   -7.2488 C   0  0  0  0  0  0  0  0  0  0  0  0
   53.0671  159.0136   -5.9301 C   0  0  0  0  0  0  0  0  0  0  0  0
   57.3972  158.0161   -9.0982 N   0  0  0  0  0  0  0  0  0  0  0  0
   58.7695  156.3427   -8.5995 N   0  0  0  0  0  0  0  0  0  0  0  0
   56.4610  155.0634   -6.5693 N   0  0  0  0  0  0  0  0  0  0  0  0
   51.2239  158.1356   -7.2792 N   0  3  0  0  0  0  0  0  0  0  0  0
   54.1778  155.2689   -2.1327 O   0  5  0  0  0  0  0  0  0  0  0  0
   56.7328  153.1109   -7.8078 O   0  0  0  0  0  0  0  0  0  0  0  0
   53.6299  157.7202   -5.8126 O   0  0  0  0  0  0  0  0  0  0  0  0
   58.7263  159.5670   -8.4513 H   0  0  0  0  0  0  0  0  0  0  0  0
   60.4287  157.4771   -7.8336 H   0  0  0  0  0  0  0  0  0  0  0  0
   56.8248  155.9893   -9.4481 H   0  0  0  0  0  0  0  0  0  0  0  0
   60.4742  152.9232   -7.0812 H   0  0  0  0  0  0  0  0  0  0  0  0
   59.0010  152.2984   -6.2230 H   0  0  0  0  0  0  0  0  0  0  0  0
   58.7652  154.4878   -5.0319 H   0  0  0  0  0  0  0  0  0  0  0  0
   60.2382  155.1138   -5.8893 H   0  0  0  0  0  0  0  0  0  0  0  0
   53.4178  154.9693   -5.0458 H   0  0  0  0  0  0  0  0  0  0  0  0
   54.8536  154.0609   -4.5660 H   0  0  0  0  0  0  0  0  0  0  0  0
   57.0510  155.4003   -3.9196 H   0  0  0  0  0  0  0  0  0  0  0  0
   57.0113  157.1637   -3.9548 H   0  0  0  0  0  0  0  0  0  0  0  0
   52.5336  156.7946   -3.5508 H   0  0  0  0  0  0  0  0  0  0  0  0
   53.2566  158.1845   -2.7127 H   0  0  0  0  0  0  0  0  0  0  0  0
   54.6669  154.0285   -6.9862 H   0  0  0  0  0  0  0  0  0  0  0  0
   54.5929  155.7816   -7.0904 H   0  0  0  0  0  0  0  0  0  0  0  0
   56.6249  157.1257   -6.4264 H   0  0  0  0  0  0  0  0  0  0  0  0
   58.1035  156.2810   -5.9774 H   0  0  0  0  0  0  0  0  0  0  0  0
   55.3463  156.9696   -2.1821 H   0  0  0  0  0  0  0  0  0  0  0  0
   55.0008  158.4513   -4.4264 H   0  0  0  0  0  0  0  0  0  0  0  0
   59.0358  154.4433   -9.3941 H   0  0  0  0  0  0  0  0  0  0  0  0
   60.3677  155.0332   -8.3977 H   0  0  0  0  0  0  0  0  0  0  0  0
   52.9717  158.8988   -8.1030 H   0  0  0  0  0  0  0  0  0  0  0  0
   51.8689  160.1121   -7.3713 H   0  0  0  0  0  0  0  0  0  0  0  0
   53.8839  159.7414   -5.8977 H   0  0  0  0  0  0  0  0  0  0  0  0
   52.4033  159.1917   -5.0778 H   0  0  0  0  0  0  0  0  0  0  0  0
   51.3282  157.4489   -6.5252 H   0  0  0  0  0  0  0  0  0  0  0  0
   51.2129  157.6286   -8.1704 H   0  0  0  0  0  0  0  0  0  0  0  0
   50.3151  158.5963   -7.1651 H   0  0  0  0  0  0  0  0  0  0  0  0
  1  2  2  0  0  0  0
  1 19  1  0  0  0  0
  2 20  1  0  0  0  0
  3 19  2  0  0  0  0
  3 20  1  0  0  0  0
  4 14  1  0  0  0  0
  4 21  1  0  0  0  0
  4 24  2  0  0  0  0
  5  6  1  0  0  0  0
  5 14  1  0  0  0  0
  6 14  1  0  0  0  0
  7 10  1  0  0  0  0
  7 15  1  0  0  0  0
  8 11  1  0  0  0  0
  8 15  1  0  0  0  0
  9 12  1  0  0  0  0
  9 13  1  0  0  0  0
 10 21  1  0  0  0  0
 11 21  1  0  0  0  0
 12 15  1  0  0  0  0
 12 23  1  0  0  0  0
 13 15  1  0  0  0  0
 13 25  1  0  0  0  0
 14 16  1  0  0  0  0
 16 20  1  0  0  0  0
 17 18  1  0  0  0  0
 17 22  1  0  0  0  0
 18 25  1  0  0  0  0
  1 26  1  0  0  0  0
  2 27  1  0  0  0  0
  3 28  1  0  0  0  0
  5 29  1  0  0  0  0
  5 30  1  0  0  0  0
  6 31  1  0  0  0  0
  6 32  1  0  0  0  0
  7 33  1  0  0  0  0
  7 34  1  0  0  0  0
  8 35  1  0  0  0  0
  8 36  1  0  0  0  0
  9 37  1  0  0  0  0
  9 38  1  0  0  0  0
 10 39  1  0  0  0  0
 10 40  1  0  0  0  0
 11 41  1  0  0  0  0
 11 42  1  0  0  0  0
 12 43  1  0  0  0  0
 13 44  1  0  0  0  0
 16 45  1  0  0  0  0
 16 46  1  0  0  0  0
 17 47  1  0  0  0  0
 17 48  1  0  0  0  0
 18 49  1  0  0  0  0
 18 50  1  0  0  0  0
 22 51  1  0  0  0  0
 22 52  1  0  0  0  0
 22 53  1  0  0  0  0
M  CHG  2  22   1  23  -1
M  END
> <FRED Chemgauss4 score>
-7.081342

$$$$
Schulte-2016
  -OEChem-05122015073D

 80 83  0     1  0  0  0  0  0999 V2000
   59.7648  161.1248    0.6428 C   0  0  0  0  0  0  0  0  0  0  0  0
   60.1177  161.8657   -6.2145 C   0  0  0  0  0  0  0  0  0  0  0  0
   59.3988  162.4574    0.4538 C   0  0  0  0  0  0  0  0  0  0  0  0
   60.5131  161.1158   -7.3221 C   0  0  0  0  0  0  0  0  0  0  0  0
   53.5286  164.1087   -4.4945 C   0  0  0  0  0  0  0  0  0  0  0  0
   59.0687  153.4791   -6.2296 C   0  0  0  0  0  0  0  0  0  0  0  0
   59.1637  160.1218   -0.1177 C   0  0  0  0  0  0  0  0  0  0  0  0
   59.6907  161.2223   -5.0529 C   0  0  0  0  0  0  0  0  0  0  0  0
   54.0338  163.2887   -3.4855 C   0  0  0  0  0  0  0  0  0  0  0  0
   59.7470  154.6706   -6.4861 C   0  0  0  0  0  0  0  0  0  0  0  0
   58.4316  162.7871   -0.4956 C   0  0  0  0  0  0  0  0  0  0  0  0
   60.4814  159.7223   -7.2682 C   0  0  0  0  0  0  0  0  0  0  0  0
   54.1670  165.3102   -4.8019 C   0  0  0  0  0  0  0  0  0  0  0  0
   57.7074  153.3759   -6.5158 C   0  0  0  0  0  0  0  0  0  0  0  0
   55.8159  164.8718   -3.0914 C   0  0  0  0  0  0  0  0  0  0  0  0
   57.7026  155.6558   -7.3150 C   0  0  0  0  0  0  0  0  0  0  0  0
   55.1774  163.6703   -2.7840 C   0  0  0  0  0  0  0  0  0  0  0  0
   59.0639  155.7590   -7.0288 C   0  0  0  0  0  0  0  0  0  0  0  0
   58.1965  160.4515   -1.0671 C   0  0  0  0  0  0  0  0  0  0  0  0
   59.6590  159.8288   -4.9990 C   0  0  0  0  0  0  0  0  0  0  0  0
   55.3106  165.6917   -4.1004 C   0  0  0  0  0  0  0  0  0  0  0  0
   57.0243  154.4643   -7.0585 C   0  0  0  0  0  0  0  0  0  0  0  0
   57.8304  161.7841   -1.2561 C   0  0  0  0  0  0  0  0  0  0  0  0
   60.0543  159.0788   -6.1067 C   0  0  0  0  0  0  0  0  0  0  0  0
   53.8716  157.5809   -4.4320 C   0  0  0  0  0  0  0  0  0  0  0  0
   57.0981  167.1927   -3.6445 C   0  0  0  0  0  0  0  0  0  0  0  0
   55.0652  153.1161   -7.0518 C   0  0  0  0  0  0  0  0  0  0  0  0
   57.5602  159.3595   -1.8757 C   0  0  0  0  0  0  0  0  0  0  0  0
   59.1965  159.1538   -3.7415 C   0  0  0  0  0  0  0  0  0  0  0  0
   55.7205  162.7883   -1.6983 C   0  0  0  0  0  0  0  0  0  0  0  0
   59.7936  157.0408   -7.3043 C   0  0  0  0  0  0  0  0  0  0  0  0
   55.4767  159.6061   -4.2607 C   0  0  0  0  0  0  0  0  0  0  0  0
   56.7693  158.7982   -4.1695 C   0  0  0  0  0  0  0  0  0  0  0  0
   54.3505  158.9120   -5.0352 C   0  0  2  0  0  0  0  0  0  0  0  0
   53.1560  159.7609   -5.0249 N   0  0  0  0  0  0  0  0  0  0  0  0
   57.7814  159.5176   -3.3609 N   0  3  1  0  0  0  0  0  0  0  0  0
   53.4894  157.6167   -3.2287 O   0  5  0  0  0  0  0  0  0  0  0  0
   53.9176  156.5979   -5.2276 O   0  0  0  0  0  0  0  0  0  0  0  0
   55.9339  166.8639   -4.4009 O   0  0  0  0  0  0  0  0  0  0  0  0
   55.6960  154.3633   -7.3383 O   0  0  0  0  0  0  0  0  0  0  0  0
   56.8869  162.1231   -2.1787 O   0  0  0  0  0  0  0  0  0  0  0  0
   60.0286  157.7170   -6.0709 O   0  0  0  0  0  0  0  0  0  0  0  0
   60.5176  160.8674    1.3825 H   0  0  0  0  0  0  0  0  0  0  0  0
   60.1417  162.9510   -6.2562 H   0  0  0  0  0  0  0  0  0  0  0  0
   59.8665  163.2379    1.0468 H   0  0  0  0  0  0  0  0  0  0  0  0
   60.8446  161.6172   -8.2266 H   0  0  0  0  0  0  0  0  0  0  0  0
   52.6385  163.8114   -5.0410 H   0  0  0  0  0  0  0  0  0  0  0  0
   59.6006  152.6316   -5.8075 H   0  0  0  0  0  0  0  0  0  0  0  0
   59.4547  159.0863    0.0383 H   0  0  0  0  0  0  0  0  0  0  0  0
   59.3833  161.8156   -4.1958 H   0  0  0  0  0  0  0  0  0  0  0  0
   53.5293  162.3547   -3.2528 H   0  0  0  0  0  0  0  0  0  0  0  0
   60.8075  154.7417   -6.2595 H   0  0  0  0  0  0  0  0  0  0  0  0
   58.1506  163.8270   -0.6383 H   0  0  0  0  0  0  0  0  0  0  0  0
   60.7905  159.1435   -8.1343 H   0  0  0  0  0  0  0  0  0  0  0  0
   53.7685  165.9444   -5.5889 H   0  0  0  0  0  0  0  0  0  0  0  0
   57.1848  152.4451   -6.3136 H   0  0  0  0  0  0  0  0  0  0  0  0
   56.7075  165.1720   -2.5459 H   0  0  0  0  0  0  0  0  0  0  0  0
   57.1674  156.5028   -7.7379 H   0  0  0  0  0  0  0  0  0  0  0  0
   57.4962  168.1516   -3.9853 H   0  0  0  0  0  0  0  0  0  0  0  0
   57.8491  166.4087   -3.7706 H   0  0  0  0  0  0  0  0  0  0  0  0
   56.8266  167.2680   -2.5888 H   0  0  0  0  0  0  0  0  0  0  0  0
   54.0078  153.1712   -7.3219 H   0  0  0  0  0  0  0  0  0  0  0  0
   55.1691  152.8902   -5.9875 H   0  0  0  0  0  0  0  0  0  0  0  0
   55.5482  152.3306   -7.6378 H   0  0  0  0  0  0  0  0  0  0  0  0
   57.9614  158.3781   -1.6007 H   0  0  0  0  0  0  0  0  0  0  0  0
   56.4763  159.3325   -1.7202 H   0  0  0  0  0  0  0  0  0  0  0  0
   59.2242  158.0636   -3.8441 H   0  0  0  0  0  0  0  0  0  0  0  0
   59.8307  159.4251   -2.8907 H   0  0  0  0  0  0  0  0  0  0  0  0
   55.9837  163.3752   -0.8117 H   0  0  0  0  0  0  0  0  0  0  0  0
   54.9783  162.0406   -1.3986 H   0  0  0  0  0  0  0  0  0  0  0  0
   60.7540  156.8474   -7.7942 H   0  0  0  0  0  0  0  0  0  0  0  0
   59.2046  157.6885   -7.9625 H   0  0  0  0  0  0  0  0  0  0  0  0
   55.1471  159.8321   -3.2380 H   0  0  0  0  0  0  0  0  0  0  0  0
   55.6985  160.5743   -4.7297 H   0  0  0  0  0  0  0  0  0  0  0  0
   56.5915  157.8436   -3.6649 H   0  0  0  0  0  0  0  0  0  0  0  0
   57.2180  158.6062   -5.1479 H   0  0  0  0  0  0  0  0  0  0  0  0
   54.6528  158.7564   -6.0769 H   0  0  0  0  0  0  0  0  0  0  0  0
   52.2742  159.3227   -5.1648 H   0  0  0  0  0  0  0  0  0  0  0  0
   53.2860  160.7452   -5.0838 H   0  0  0  0  0  0  0  0  0  0  0  0
   57.6850  160.5293   -3.5569 H   0  0  0  0  0  0  0  0  0  0  0  0
  1  3  1  0  0  0  0
  1  7  2  0  0  0  0
  2  4  1  0  0  0  0
  2  8  2  0  0  0  0
  3 11  2  0  0  0  0
  4 12  2  0  0  0  0
  5  9  1  0  0  0  0
  5 13  2  0  0  0  0
  6 10  2  0  0  0  0
  6 14  1  0  0  0  0
  7 19  1  0  0  0  0
  8 20  1  0  0  0  0
  9 17  2  0  0  0  0
 10 18  1  0  0  0  0
 11 23  1  0  0  0  0
 12 24  1  0  0  0  0
 13 21  1  0  0  0  0
 14 22  2  0  0  0  0
 15 17  1  0  0  0  0
 15 21  2  0  0  0  0
 16 18  2  0  0  0  0
 16 22  1  0  0  0  0
 17 30  1  0  0  0  0
 18 31  1  0  0  0  0
 19 23  2  0  0  0  0
 19 28  1  0  0  0  0
 20 24  2  0  0  0  0
 20 29  1  0  0  0  0
 21 39  1  0  0  0  0
 22 40  1  0  0  0  0
 23 41  1  0  0  0  0
 24 42  1  0  0  0  0
 25 34  1  0  0  0  0
 25 37  1  0  0  0  0
 25 38  2  0  0  0  0
 26 39  1  0  0  0  0
 27 40  1  0  0  0  0
 28 36  1  0  0  0  0
 29 36  1  0  0  0  0
 30 41  1  0  0  0  0
 31 42  1  0  0  0  0
 32 33  1  0  0  0  0
 32 34  1  0  0  0  0
 33 36  1  0  0  0  0
 34 35  1  0  0  0  0
  1 43  1  0  0  0  0
  2 44  1  0  0  0  0
  3 45  1  0  0  0  0
  4 46  1  0  0  0  0
  5 47  1  0  0  0  0
  6 48  1  0  0  0  0
  7 49  1  0  0  0  0
  8 50  1  0  0  0  0
  9 51  1  0  0  0  0
 10 52  1  0  0  0  0
 11 53  1  0  0  0  0
 12 54  1  0  0  0  0
 13 55  1  0  0  0  0
 14 56  1  0  0  0  0
 15 57  1  0  0  0  0
 16 58  1  0  0  0  0
 26 59  1  0  0  0  0
 26 60  1  0  0  0  0
 26 61  1  0  0  0  0
 27 62  1  0  0  0  0
 27 63  1  0  0  0  0
 27 64  1  0  0  0  0
 28 65  1  0  0  0  0
 28 66  1  0  0  0  0
 29 67  1  0  0  0  0
 29 68  1  0  0  0  0
 30 69  1  0  0  0  0
 30 70  1  0  0  0  0
 31 71  1  0  0  0  0
 31 72  1  0  0  0  0
 32 73  1  0  0  0  0
 32 74  1  0  0  0  0
 33 75  1  0  0  0  0
 33 76  1  0  0  0  0
 34 77  1  0  0  0  0
 35 78  1  0  0  0  0
 35 79  1  0  0  0  0
 36 80  1  0  0  0  0
M  CHG  2  36   1  37  -1
M  END
> <FRED Chemgauss4 score>
-7.079098

$$$$
C40509678	P61509681
  -OEChem-05122015073D

 40 42  0     0  0  0  0  0  0999 V2000
   56.5470  154.1751   -6.6665 C   0  0  0  0  0  0  0  0  0  0  0  0
   55.9535  155.3856   -6.3021 C   0  0  0  0  0  0  0  0  0  0  0  0
   58.1281  156.4728   -6.1961 C   0  0  0  0  0  0  0  0  0  0  0  0
   57.8546  159.8596   -2.6617 C   0  0  0  0  0  0  0  0  0  0  0  0
   57.9244  154.1347   -6.8029 C   0  0  0  0  0  0  0  0  0  0  0  0
   58.7069  155.2718   -6.5697 C   0  0  0  0  0  0  0  0  0  0  0  0
   56.8856  158.9127   -2.3492 C   0  0  0  0  0  0  0  0  0  0  0  0
   56.2935  158.1707   -3.3652 C   0  0  0  0  0  0  0  0  0  0  0  0
   56.7383  156.5262   -6.0688 C   0  0  0  0  0  0  0  0  0  0  0  0
   58.1936  160.0251   -3.9949 C   0  0  0  0  0  0  0  0  0  0  0  0
   56.7023  158.4118   -4.6669 C   0  0  0  0  0  0  0  0  0  0  0  0
   58.7828  152.9578   -7.1434 C   0  0  0  0  0  0  0  0  0  0  0  0
   60.1612  154.9602   -6.7313 C   0  0  0  0  0  0  0  0  0  0  0  0
   60.0972  153.6512   -7.5326 C   0  0  0  0  0  0  0  0  0  0  0  0
   56.4981  158.7115   -0.9216 C   0  0  0  0  0  0  0  0  0  0  0  0
   59.2292  161.0327   -4.3675 C   0  0  0  0  0  0  0  0  0  0  0  0
   55.2501  157.1480   -3.0643 C   0  0  0  0  0  0  0  0  0  0  0  0
   57.6405  159.3231   -5.0092 N   0  0  0  0  0  0  0  0  0  0  0  0
   54.1016  157.7153   -2.4048 N   0  0  0  0  0  0  0  0  0  0  0  0
   56.1378  157.6947   -5.7075 O   0  0  0  0  0  0  0  0  0  0  0  0
   55.9395  153.2925   -6.8355 H   0  0  0  0  0  0  0  0  0  0  0  0
   54.8731  155.4394   -6.1934 H   0  0  0  0  0  0  0  0  0  0  0  0
   58.7392  157.3490   -6.0053 H   0  0  0  0  0  0  0  0  0  0  0  0
   58.3295  160.4504   -1.8849 H   0  0  0  0  0  0  0  0  0  0  0  0
   58.9167  152.3212   -6.2627 H   0  0  0  0  0  0  0  0  0  0  0  0
   58.3811  152.3703   -7.9736 H   0  0  0  0  0  0  0  0  0  0  0  0
   60.6985  155.7387   -7.2800 H   0  0  0  0  0  0  0  0  0  0  0  0
   60.6236  154.8036   -5.7514 H   0  0  0  0  0  0  0  0  0  0  0  0
   60.9714  153.0149   -7.3632 H   0  0  0  0  0  0  0  0  0  0  0  0
   60.0740  153.8885   -8.6055 H   0  0  0  0  0  0  0  0  0  0  0  0
   55.6680  159.3764   -0.6553 H   0  0  0  0  0  0  0  0  0  0  0  0
   56.1885  157.6753   -0.7365 H   0  0  0  0  0  0  0  0  0  0  0  0
   57.3402  158.9176   -0.2489 H   0  0  0  0  0  0  0  0  0  0  0  0
   60.2253  160.5741   -4.3655 H   0  0  0  0  0  0  0  0  0  0  0  0
   59.0389  161.4483   -5.3652 H   0  0  0  0  0  0  0  0  0  0  0  0
   59.2327  161.8772   -3.6664 H   0  0  0  0  0  0  0  0  0  0  0  0
   54.8959  156.6615   -3.9839 H   0  0  0  0  0  0  0  0  0  0  0  0
   55.6411  156.3527   -2.4151 H   0  0  0  0  0  0  0  0  0  0  0  0
   53.5354  157.1266   -1.8170 H   0  0  0  0  0  0  0  0  0  0  0  0
   53.7678  158.6189   -2.6960 H   0  0  0  0  0  0  0  0  0  0  0  0
  1  2  2  0  0  0  0
  1  5  1  0  0  0  0
  2  9  1  0  0  0  0
  3  6  1  0  0  0  0
  3  9  2  0  0  0  0
  4  7  1  0  0  0  0
  4 10  2  0  0  0  0
  5  6  2  0  0  0  0
  5 12  1  0  0  0  0
  6 13  1  0  0  0  0
  7  8  2  0  0  0  0
  7 15  1  0  0  0  0
  8 11  1  0  0  0  0
  8 17  1  0  0  0  0
  9 20  1  0  0  0  0
 10 16  1  0  0  0  0
 10 18  1  0  0  0  0
 11 18  2  0  0  0  0
 11 20  1  0  0  0  0
 12 14  1  0  0  0  0
 13 14  1  0  0  0  0
 17 19  1  0  0  0  0
  1 21  1  0  0  0  0
  2 22  1  0  0  0  0
  3 23  1  0  0  0  0
  4 24  1  0  0  0  0
 12 25  1  0  0  0  0
 12 26  1  0  0  0  0
 13 27  1  0  0  0  0
 13 28  1  0  0  0  0
 14 29  1  0  0  0  0
 14 30  1  0  0  0  0
 15 31  1  0  0  0  0
 15 32  1  0  0  0  0
 15 33  1  0  0  0  0
 16 34  1  0  0  0  0
 16 35  1  0  0  0  0
 16 36  1  0  0  0  0
 17 37  1  0  0  0  0
 17 38  1  0  0  0  0
 19 39  1  0  0  0  0
 19 40  1  0  0  0  0
M  END
> <FRED Chemgauss4 score>
-7.078310

$$$$
C85446673	P133732895
  -OEChem-05122015073D

 27 27  0     0  0  0  0  0  0999 V2000
   57.3262  153.2582   -7.1081 C   0  0  0  0  0  0  0  0  0  0  0  0
   57.9817  154.3220   -6.5243 C   0  0  0  0  0  0  0  0  0  0  0  0
   55.9203  155.0287   -6.2767 C   0  0  0  0  0  0  0  0  0  0  0  0
   59.4441  154.4559   -6.3734 C   0  0  0  0  0  0  0  0  0  0  0  0
   54.7505  155.8910   -5.8994 C   0  0  0  0  0  0  0  0  0  0  0  0
   55.6436  156.5372   -2.3529 C   0  0  0  0  0  0  0  0  0  0  0  0
   53.3965  155.7292   -3.1513 C   0  0  0  0  0  0  0  0  0  0  0  0
   54.8743  155.8902   -3.5024 C   0  0  0  0  0  0  0  0  0  0  0  0
   57.1771  155.3384   -6.0473 N   0  0  0  0  0  0  0  0  0  0  0  0
   55.0199  156.6848   -4.7046 N   0  0  0  0  0  0  0  0  0  0  0  0
   55.1169  157.8358   -2.1042 O   0  0  0  0  0  0  0  0  0  0  0  0
   53.2724  154.9064   -1.9968 O   0  0  0  0  0  0  0  0  0  0  0  0
   55.6335  153.5300   -7.0619 S   0  0  0  0  0  0  0  0  0  0  0  0
   57.7436  152.3622   -7.5454 H   0  0  0  0  0  0  0  0  0  0  0  0
   59.8887  154.9616   -7.2461 H   0  0  0  0  0  0  0  0  0  0  0  0
   59.7158  155.0362   -5.4752 H   0  0  0  0  0  0  0  0  0  0  0  0
   59.9400  153.4762   -6.2648 H   0  0  0  0  0  0  0  0  0  0  0  0
   54.5006  156.5804   -6.7132 H   0  0  0  0  0  0  0  0  0  0  0  0
   53.8610  155.2828   -5.7038 H   0  0  0  0  0  0  0  0  0  0  0  0
   56.7021  156.6505   -2.6092 H   0  0  0  0  0  0  0  0  0  0  0  0
   55.5622  155.9471   -1.4335 H   0  0  0  0  0  0  0  0  0  0  0  0
   52.8365  155.2655   -3.9708 H   0  0  0  0  0  0  0  0  0  0  0  0
   52.9454  156.6994   -2.9188 H   0  0  0  0  0  0  0  0  0  0  0  0
   55.3102  154.9144   -3.7475 H   0  0  0  0  0  0  0  0  0  0  0  0
   54.3681  157.4720   -4.6775 H   0  0  0  0  0  0  0  0  0  0  0  0
   55.6314  158.2089   -1.3710 H   0  0  0  0  0  0  0  0  0  0  0  0
   52.3232  154.8307   -1.8098 H   0  0  0  0  0  0  0  0  0  0  0  0
  1  2  2  0  0  0  0
  1 13  1  0  0  0  0
  2  4  1  0  0  0  0
  2  9  1  0  0  0  0
  3  5  1  0  0  0  0
  3  9  2  0  0  0  0
  3 13  1  0  0  0  0
  5 10  1  0  0  0  0
  6  8  1  0  0  0  0
  6 11  1  0  0  0  0
  7  8  1  0  0  0  0
  7 12  1  0  0  0  0
  8 10  1  0  0  0  0
  1 14  1  0  0  0  0
  4 15  1  0  0  0  0
  4 16  1  0  0  0  0
  4 17  1  0  0  0  0
  5 18  1  0  0  0  0
  5 19  1  0  0  0  0
  6 20  1  0  0  0  0
  6 21  1  0  0  0  0
  7 22  1  0  0  0  0
  7 23  1  0  0  0  0
  8 24  1  0  0  0  0
 10 25  1  0  0  0  0
 11 26  1  0  0  0  0
 12 27  1  0  0  0  0
M  END
> <FRED Chemgauss4 score>
-7.074244

$$$$
C69506331	P106964096
  -OEChem-05122015073D

 41 42  0     1  0  0  0  0  0999 V2000
   56.4578  157.3520   -4.5822 C   0  0  0  0  0  0  0  0  0  0  0  0
   55.4802  158.2703   -2.6932 C   0  0  0  0  0  0  0  0  0  0  0  0
   59.3842  161.1658   -2.1098 C   0  0  0  0  0  0  0  0  0  0  0  0
   58.5578  160.4639   -3.1901 C   0  0  0  0  0  0  0  0  0  0  0  0
   58.6552  160.9364   -0.7816 C   0  0  0  0  0  0  0  0  0  0  0  0
   55.2625  157.1572   -3.6873 C   0  0  1  0  0  0  0  0  0  0  0  0
   57.2706  160.0305   -2.4936 C   0  0  2  0  0  0  0  0  0  0  0  0
   57.6970  159.7811   -1.0487 C   0  0  1  0  0  0  0  0  0  0  0  0
   58.2321  156.4025   -6.0344 C   0  0  0  0  0  0  0  0  0  0  0  0
   56.1606  155.0699   -5.5330 C   0  0  0  0  0  0  0  0  0  0  0  0
   53.9502  157.3262   -4.4257 C   0  0  0  0  0  0  0  0  0  0  0  0
   53.7973  158.7060   -5.0610 C   0  0  0  0  0  0  0  0  0  0  0  0
   56.7314  156.4717   -5.7530 C   0  0  0  0  0  0  0  0  0  0  0  0
   57.2158  158.3456   -4.2368 N   0  0  0  0  0  0  0  0  0  0  0  0
   56.6502  158.8980   -3.1180 N   0  0  0  0  0  0  0  0  0  0  0  0
   52.5409  158.8567   -5.7413 N   0  0  0  0  0  0  0  0  0  0  0  0
   54.7641  158.5380   -1.7429 O   0  0  0  0  0  0  0  0  0  0  0  0
   58.3815  158.5409   -0.9014 O   0  0  0  0  0  0  0  0  0  0  0  0
   60.3958  160.7455   -2.0574 H   0  0  0  0  0  0  0  0  0  0  0  0
   59.4866  162.2344   -2.3311 H   0  0  0  0  0  0  0  0  0  0  0  0
   58.3224  161.1833   -3.9855 H   0  0  0  0  0  0  0  0  0  0  0  0
   59.1058  159.6316   -3.6460 H   0  0  0  0  0  0  0  0  0  0  0  0
   59.3685  160.6872    0.0126 H   0  0  0  0  0  0  0  0  0  0  0  0
   58.1196  161.8324   -0.4521 H   0  0  0  0  0  0  0  0  0  0  0  0
   55.3330  156.1897   -3.1822 H   0  0  0  0  0  0  0  0  0  0  0  0
   56.4982  160.8446   -2.5347 H   0  0  0  0  0  0  0  0  0  0  0  0
   56.8638  159.8161   -0.3781 H   0  0  0  0  0  0  0  0  0  0  0  0
   58.7794  155.9774   -5.1854 H   0  0  0  0  0  0  0  0  0  0  0  0
   58.6392  157.4008   -6.2303 H   0  0  0  0  0  0  0  0  0  0  0  0
   58.4380  155.7811   -6.9125 H   0  0  0  0  0  0  0  0  0  0  0  0
   56.6238  154.5920   -4.6625 H   0  0  0  0  0  0  0  0  0  0  0  0
   56.3338  154.4252   -6.4022 H   0  0  0  0  0  0  0  0  0  0  0  0
   55.0807  155.1111   -5.3549 H   0  0  0  0  0  0  0  0  0  0  0  0
   53.1216  157.1725   -3.7212 H   0  0  0  0  0  0  0  0  0  0  0  0
   53.8609  156.5498   -5.1980 H   0  0  0  0  0  0  0  0  0  0  0  0
   53.8400  159.4837   -4.2920 H   0  0  0  0  0  0  0  0  0  0  0  0
   54.5956  158.8982   -5.7847 H   0  0  0  0  0  0  0  0  0  0  0  0
   56.2354  156.9036   -6.6333 H   0  0  0  0  0  0  0  0  0  0  0  0
   52.4614  159.5324   -6.4854 H   0  0  0  0  0  0  0  0  0  0  0  0
   51.7121  158.4435   -5.3424 H   0  0  0  0  0  0  0  0  0  0  0  0
   58.7137  158.5018    0.0126 H   0  0  0  0  0  0  0  0  0  0  0  0
  1  6  1  0  0  0  0
  1 13  1  0  0  0  0
  1 14  2  0  0  0  0
  2  6  1  0  0  0  0
  2 15  1  0  0  0  0
  2 17  2  0  0  0  0
  3  4  1  0  0  0  0
  3  5  1  0  0  0  0
  4  7  1  0  0  0  0
  5  8  1  0  0  0  0
  6 11  1  0  0  0  0
  7  8  1  0  0  0  0
  7 15  1  0  0  0  0
  8 18  1  0  0  0  0
  9 13  1  0  0  0  0
 10 13  1  0  0  0  0
 11 12  1  0  0  0  0
 12 16  1  0  0  0  0
 14 15  1  0  0  0  0
  3 19  1  0  0  0  0
  3 20  1  0  0  0  0
  4 21  1  0  0  0  0
  4 22  1  0  0  0  0
  5 23  1  0  0  0  0
  5 24  1  0  0  0  0
  6 25  1  0  0  0  0
  7 26  1  0  0  0  0
  8 27  1  0  0  0  0
  9 28  1  0  0  0  0
  9 29  1  0  0  0  0
  9 30  1  0  0  0  0
 10 31  1  0  0  0  0
 10 32  1  0  0  0  0
 10 33  1  0  0  0  0
 11 34  1  0  0  0  0
 11 35  1  0  0  0  0
 12 36  1  0  0  0  0
 12 37  1  0  0  0  0
 13 38  1  0  0  0  0
 16 39  1  0  0  0  0
 16 40  1  0  0  0  0
 18 41  1  0  0  0  0
M  END
> <FRED Chemgauss4 score>
-7.072304

$$$$
C97747319	P155077223
  -OEChem-05122015073D

 42 44  0     1  0  0  0  0  0999 V2000
   59.4732  154.1145   -8.3849 C   0  0  0  0  0  0  0  0  0  0  0  0
   59.6293  155.3293   -7.7224 C   0  0  0  0  0  0  0  0  0  0  0  0
   58.3329  153.3429   -8.1663 C   0  0  0  0  0  0  0  0  0  0  0  0
   58.6450  155.7753   -6.8403 C   0  0  0  0  0  0  0  0  0  0  0  0
   57.3338  153.7887   -7.2912 C   0  0  0  0  0  0  0  0  0  0  0  0
   57.4900  155.0117   -6.6159 C   0  0  0  0  0  0  0  0  0  0  0  0
   56.1293  152.9290   -7.0205 C   0  0  0  0  0  0  0  0  0  0  0  0
   54.9859  153.7608   -6.4598 C   0  0  0  0  0  0  0  0  0  0  0  0
   55.6688  159.4199   -1.7930 C   0  0  0  0  0  0  0  0  0  0  0  0
   56.7497  158.9602   -2.7567 C   0  0  0  0  0  0  0  0  0  0  0  0
   54.1077  158.0355   -2.8792 C   0  0  0  0  0  0  0  0  0  0  0  0
   56.4221  155.5027   -5.6593 C   0  0  1  0  0  0  0  0  0  0  0  0
   55.1912  157.5675   -3.8474 C   0  0  1  0  0  0  0  0  0  0  0  0
   55.7137  156.7597   -6.1665 C   0  0  0  0  0  0  0  0  0  0  0  0
   54.6127  157.2384   -5.2142 C   0  0  1  0  0  0  0  0  0  0  0  0
   52.7531  156.2747   -6.2530 N   0  0  0  0  0  0  0  0  0  0  0  0
   53.5696  156.2490   -5.0774 N   0  0  0  0  0  0  0  0  0  0  0  0
   54.7010  158.3818   -1.6245 O   0  0  0  0  0  0  0  0  0  0  0  0
   55.4475  154.4991   -5.3302 O   0  0  0  0  0  0  0  0  0  0  0  0
   56.1604  158.6109   -4.0112 O   0  0  0  0  0  0  0  0  0  0  0  0
   60.2425  153.7649   -9.0677 H   0  0  0  0  0  0  0  0  0  0  0  0
   60.5190  155.9285   -7.8907 H   0  0  0  0  0  0  0  0  0  0  0  0
   58.2297  152.3898   -8.6786 H   0  0  0  0  0  0  0  0  0  0  0  0
   58.7951  156.7209   -6.3293 H   0  0  0  0  0  0  0  0  0  0  0  0
   55.8233  152.4725   -7.9711 H   0  0  0  0  0  0  0  0  0  0  0  0
   56.3752  152.1261   -6.3150 H   0  0  0  0  0  0  0  0  0  0  0  0
   54.6387  154.4775   -7.2150 H   0  0  0  0  0  0  0  0  0  0  0  0
   54.1229  153.1414   -6.1742 H   0  0  0  0  0  0  0  0  0  0  0  0
   56.0995  159.6484   -0.8137 H   0  0  0  0  0  0  0  0  0  0  0  0
   55.1617  160.3180   -2.1643 H   0  0  0  0  0  0  0  0  0  0  0  0
   57.4746  159.7608   -2.9306 H   0  0  0  0  0  0  0  0  0  0  0  0
   57.2865  158.0886   -2.3646 H   0  0  0  0  0  0  0  0  0  0  0  0
   53.5711  158.9108   -3.2645 H   0  0  0  0  0  0  0  0  0  0  0  0
   53.3775  157.2403   -2.6988 H   0  0  0  0  0  0  0  0  0  0  0  0
   56.9480  155.7669   -4.7047 H   0  0  0  0  0  0  0  0  0  0  0  0
   55.7050  156.6849   -3.4449 H   0  0  0  0  0  0  0  0  0  0  0  0
   56.4647  157.5479   -6.2878 H   0  0  0  0  0  0  0  0  0  0  0  0
   55.2978  156.5517   -7.1585 H   0  0  0  0  0  0  0  0  0  0  0  0
   54.1384  158.1384   -5.6226 H   0  0  0  0  0  0  0  0  0  0  0  0
   51.8015  156.5367   -5.9969 H   0  0  0  0  0  0  0  0  0  0  0  0
   53.0856  157.0090   -6.8768 H   0  0  0  0  0  0  0  0  0  0  0  0
   53.9787  155.3155   -4.9838 H   0  0  0  0  0  0  0  0  0  0  0  0
  1  2  1  0  0  0  0
  1  3  2  0  0  0  0
  2  4  2  0  0  0  0
  3  5  1  0  0  0  0
  4  6  1  0  0  0  0
  5  6  2  0  0  0  0
  5  7  1  0  0  0  0
  6 12  1  0  0  0  0
  7  8  1  0  0  0  0
  8 19  1  0  0  0  0
  9 10  1  0  0  0  0
  9 18  1  0  0  0  0
 10 20  1  0  0  0  0
 11 13  1  0  0  0  0
 11 18  1  0  0  0  0
 12 14  1  0  0  0  0
 12 19  1  0  0  0  0
 13 15  1  0  0  0  0
 13 20  1  0  0  0  0
 14 15  1  0  0  0  0
 15 17  1  0  0  0  0
 16 17  1  0  0  0  0
  1 21  1  0  0  0  0
  2 22  1  0  0  0  0
  3 23  1  0  0  0  0
  4 24  1  0  0  0  0
  7 25  1  0  0  0  0
  7 26  1  0  0  0  0
  8 27  1  0  0  0  0
  8 28  1  0  0  0  0
  9 29  1  0  0  0  0
  9 30  1  0  0  0  0
 10 31  1  0  0  0  0
 10 32  1  0  0  0  0
 11 33  1  0  0  0  0
 11 34  1  0  0  0  0
 12 35  1  0  0  0  0
 13 36  1  0  0  0  0
 14 37  1  0  0  0  0
 14 38  1  0  0  0  0
 15 39  1  0  0  0  0
 16 40  1  0  0  0  0
 16 41  1  0  0  0  0
 17 42  1  0  0  0  0
M  END
> <FRED Chemgauss4 score>
-7.071857

$$$$
C87875617	P137452266
  -OEChem-05122015073D

 34 34  0     1  0  0  0  0  0999 V2000
   55.0322  155.1655   -6.0040 C   0  0  0  0  0  0  0  0  0  0  0  0
   54.1708  155.8892   -5.2162 C   0  0  0  0  0  0  0  0  0  0  0  0
   54.9784  156.8844   -4.6338 C   0  0  0  0  0  0  0  0  0  0  0  0
   54.5691  157.9536   -3.6870 C   0  0  0  0  0  0  0  0  0  0  0  0
   55.3534  161.5287   -3.6489 C   0  0  0  0  0  0  0  0  0  0  0  0
   58.4091  156.5102   -6.7639 C   0  0  0  0  0  0  0  0  0  0  0  0
   55.8635  160.1673   -1.6058 C   0  0  0  0  0  0  0  0  0  0  0  0
   55.3415  164.0009   -3.3952 C   0  0  0  0  0  0  0  0  0  0  0  0
   57.4854  155.3370   -6.4854 C   0  0  0  0  0  0  0  0  0  0  0  0
   55.0377  160.2525   -2.8800 C   0  0  2  0  0  0  0  0  0  0  0  0
   56.2548  156.8032   -5.0188 N   0  0  0  0  0  0  0  0  0  0  0  0
   56.2558  155.7483   -5.8514 N   0  0  0  0  0  0  0  0  0  0  0  0
   52.8504  155.6784   -5.0508 N   0  0  0  0  0  0  0  0  0  0  0  0
   55.2977  159.1346   -3.7484 N   0  0  0  0  0  0  0  0  0  0  0  0
   55.0856  162.6676   -2.9024 N   0  0  0  0  0  0  0  0  0  0  0  0
   53.6469  157.7410   -2.9042 O   0  0  0  0  0  0  0  0  0  0  0  0
   55.8261  161.5285   -4.7837 O   0  0  0  0  0  0  0  0  0  0  0  0
   54.8835  154.3066   -6.6446 H   0  0  0  0  0  0  0  0  0  0  0  0
   57.9286  157.2458   -7.4176 H   0  0  0  0  0  0  0  0  0  0  0  0
   59.3244  156.1644   -7.2542 H   0  0  0  0  0  0  0  0  0  0  0  0
   58.6902  157.0210   -5.8369 H   0  0  0  0  0  0  0  0  0  0  0  0
   56.9369  160.1935   -1.8261 H   0  0  0  0  0  0  0  0  0  0  0  0
   55.6434  161.0033   -0.9337 H   0  0  0  0  0  0  0  0  0  0  0  0
   55.6570  159.2349   -1.0693 H   0  0  0  0  0  0  0  0  0  0  0  0
   56.3385  164.3293   -3.0902 H   0  0  0  0  0  0  0  0  0  0  0  0
   54.6027  164.7002   -2.9945 H   0  0  0  0  0  0  0  0  0  0  0  0
   55.2840  164.0178   -4.4869 H   0  0  0  0  0  0  0  0  0  0  0  0
   57.9747  154.6068   -5.8310 H   0  0  0  0  0  0  0  0  0  0  0  0
   57.2281  154.8185   -7.4160 H   0  0  0  0  0  0  0  0  0  0  0  0
   53.9692  160.2249   -2.6402 H   0  0  0  0  0  0  0  0  0  0  0  0
   52.3412  154.9427   -5.5656 H   0  0  0  0  0  0  0  0  0  0  0  0
   52.2615  156.2997   -4.4741 H   0  0  0  0  0  0  0  0  0  0  0  0
   56.0895  159.2098   -4.3830 H   0  0  0  0  0  0  0  0  0  0  0  0
   54.6572  162.5751   -1.9861 H   0  0  0  0  0  0  0  0  0  0  0  0
  1  2  2  0  0  0  0
  1 12  1  0  0  0  0
  2  3  1  0  0  0  0
  2 13  1  0  0  0  0
  3  4  1  0  0  0  0
  3 11  2  0  0  0  0
  4 14  1  0  0  0  0
  4 16  2  0  0  0  0
  5 10  1  0  0  0  0
  5 15  1  0  0  0  0
  5 17  2  0  0  0  0
  6  9  1  0  0  0  0
  7 10  1  0  0  0  0
  8 15  1  0  0  0  0
  9 12  1  0  0  0  0
 10 14  1  0  0  0  0
 11 12  1  0  0  0  0
  1 18  1  0  0  0  0
  6 19  1  0  0  0  0
  6 20  1  0  0  0  0
  6 21  1  0  0  0  0
  7 22  1  0  0  0  0
  7 23  1  0  0  0  0
  7 24  1  0  0  0  0
  8 25  1  0  0  0  0
  8 26  1  0  0  0  0
  8 27  1  0  0  0  0
  9 28  1  0  0  0  0
  9 29  1  0  0  0  0
 10 30  1  0  0  0  0
 13 31  1  0  0  0  0
 13 32  1  0  0  0  0
 14 33  1  0  0  0  0
 15 34  1  0  0  0  0
M  END
> <FRED Chemgauss4 score>
-7.064562

$$$$
C39094979	P59234636
  -OEChem-05122015073D

 19 19  0     1  0  0  0  0  0999 V2000
   53.6504  155.5118   -3.9505 C   0  0  0  0  0  0  0  0  0  0  0  0
   55.2746  156.3396   -5.5172 C   0  0  0  0  0  0  0  0  0  0  0  0
   53.9805  155.5252   -5.4275 C   0  0  2  0  0  0  0  0  0  0  0  0
   55.9594  156.0617   -4.1748 C   0  0  1  0  0  0  0  0  0  0  0  0
   56.9285  157.1706   -3.7874 C   0  0  0  0  0  0  0  0  0  0  0  0
   54.8173  155.9186   -3.3109 N   0  0  0  0  0  0  0  0  0  0  0  0
   52.9122  156.1571   -6.2278 N   0  3  0  0  0  0  0  0  0  0  0  0
   55.0044  155.5965   -1.9902 O   0  5  0  0  0  0  0  0  0  0  0  0
   52.5803  155.1707   -3.4699 O   0  0  0  0  0  0  0  0  0  0  0  0
   55.8963  156.0403   -6.3672 H   0  0  0  0  0  0  0  0  0  0  0  0
   55.0542  157.4101   -5.6241 H   0  0  0  0  0  0  0  0  0  0  0  0
   54.1131  154.4991   -5.7855 H   0  0  0  0  0  0  0  0  0  0  0  0
   56.4822  155.0969   -4.2275 H   0  0  0  0  0  0  0  0  0  0  0  0
   56.4035  158.1248   -3.7370 H   0  0  0  0  0  0  0  0  0  0  0  0
   57.7259  157.2451   -4.5273 H   0  0  0  0  0  0  0  0  0  0  0  0
   57.3693  156.9580   -2.8131 H   0  0  0  0  0  0  0  0  0  0  0  0
   53.1912  157.0920   -6.5515 H   0  0  0  0  0  0  0  0  0  0  0  0
   52.0487  156.2631   -5.6798 H   0  0  0  0  0  0  0  0  0  0  0  0
   52.6859  155.5954   -7.0586 H   0  0  0  0  0  0  0  0  0  0  0  0
  1  3  1  0  0  0  0
  1  6  1  0  0  0  0
  1  9  2  0  0  0  0
  2  3  1  0  0  0  0
  2  4  1  0  0  0  0
  3  7  1  0  0  0  0
  4  5  1  0  0  0  0
  4  6  1  0  0  0  0
  6  8  1  0  0  0  0
  2 10  1  0  0  0  0
  2 11  1  0  0  0  0
  3 12  1  0  0  0  0
  4 13  1  0  0  0  0
  5 14  1  0  0  0  0
  5 15  1  0  0  0  0
  5 16  1  0  0  0  0
  7 17  1  0  0  0  0
  7 18  1  0  0  0  0
  7 19  1  0  0  0  0
M  CHG  2   7   1   8  -1
M  END
> <FRED Chemgauss4 score>
-7.061263

$$$$
C87344568	P136645691
  -OEChem-05122015073D

 25 25  0     1  0  0  0  0  0999 V2000
   57.6407  157.3389   -6.3284 C   0  0  0  0  0  0  0  0  0  0  0  0
   57.5814  153.9171   -7.0926 C   0  0  0  0  0  0  0  0  0  0  0  0
   56.3207  154.0187   -6.5532 C   0  0  0  0  0  0  0  0  0  0  0  0
   57.3649  155.9593   -6.5332 C   0  0  0  0  0  0  0  0  0  0  0  0
   53.2843  155.6520   -3.6452 C   0  0  0  0  0  0  0  0  0  0  0  0
   54.0496  156.5549   -6.6237 C   0  0  0  0  0  0  0  0  0  0  0  0
   54.1918  154.9745   -4.6629 C   0  0  0  0  0  0  0  0  0  0  0  0
   54.9718  155.9606   -5.5527 C   0  0  1  0  0  0  0  0  0  0  0  0
   57.8659  158.4650   -6.1611 N   0  0  0  0  0  0  0  0  0  0  0  0
   58.2263  155.1284   -7.0770 N   0  0  0  0  0  0  0  0  0  0  0  0
   56.1966  155.3326   -6.1990 N   0  0  0  0  0  0  0  0  0  0  0  0
   51.1141  156.6085   -3.4151 N   0  0  0  0  0  0  0  0  0  0  0  0
   52.0509  155.9609   -4.1940 N   0  0  0  0  0  0  0  0  0  0  0  0
   53.6347  155.9073   -2.4958 O   0  0  0  0  0  0  0  0  0  0  0  0
   58.0574  153.0332   -7.4914 H   0  0  0  0  0  0  0  0  0  0  0  0
   55.5318  153.2963   -6.3970 H   0  0  0  0  0  0  0  0  0  0  0  0
   53.6780  155.7755   -7.2984 H   0  0  0  0  0  0  0  0  0  0  0  0
   54.5871  157.2924   -7.2296 H   0  0  0  0  0  0  0  0  0  0  0  0
   53.1812  157.0559   -6.1818 H   0  0  0  0  0  0  0  0  0  0  0  0
   54.8721  154.2944   -4.1362 H   0  0  0  0  0  0  0  0  0  0  0  0
   53.5417  154.3528   -5.2924 H   0  0  0  0  0  0  0  0  0  0  0  0
   55.3019  156.7954   -4.9194 H   0  0  0  0  0  0  0  0  0  0  0  0
   50.5830  157.2173   -4.0363 H   0  0  0  0  0  0  0  0  0  0  0  0
   51.6274  157.2261   -2.7876 H   0  0  0  0  0  0  0  0  0  0  0  0
   51.8391  155.7144   -5.1558 H   0  0  0  0  0  0  0  0  0  0  0  0
  1  4  1  0  0  0  0
  1  9  3  0  0  0  0
  2  3  2  0  0  0  0
  2 10  1  0  0  0  0
  3 11  1  0  0  0  0
  4 10  2  0  0  0  0
  4 11  1  0  0  0  0
  5  7  1  0  0  0  0
  5 13  1  0  0  0  0
  5 14  2  0  0  0  0
  6  8  1  0  0  0  0
  7  8  1  0  0  0  0
  8 11  1  0  0  0  0
 12 13  1  0  0  0  0
  2 15  1  0  0  0  0
  3 16  1  0  0  0  0
  6 17  1  0  0  0  0
  6 18  1  0  0  0  0
  6 19  1  0  0  0  0
  7 20  1  0  0  0  0
  7 21  1  0  0  0  0
  8 22  1  0  0  0  0
 12 23  1  0  0  0  0
 12 24  1  0  0  0  0
 13 25  1  0  0  0  0
M  END
> <FRED Chemgauss4 score>
-7.060344

$$$$
C63134484	P96941863
  -OEChem-05122015073D

 40 41  0     0  0  0  0  0  0999 V2000
   58.7527  161.6560   -4.8210 C   0  0  0  0  0  0  0  0  0  0  0  0
   59.9234  161.7916   -4.1046 C   0  0  0  0  0  0  0  0  0  0  0  0
   57.9650  161.2316   -2.8187 C   0  0  0  0  0  0  0  0  0  0  0  0
   55.6533  158.0386   -3.6140 C   0  0  0  0  0  0  0  0  0  0  0  0
   56.2033  157.3618   -4.6529 C   0  0  0  0  0  0  0  0  0  0  0  0
   54.1703  158.0925   -3.4613 C   0  0  0  0  0  0  0  0  0  0  0  0
   53.9736  156.7209   -5.5048 C   0  0  0  0  0  0  0  0  0  0  0  0
   55.4890  153.7168   -5.6765 C   0  0  0  0  0  0  0  0  0  0  0  0
   57.3392  153.9375   -7.3655 C   0  0  0  0  0  0  0  0  0  0  0  0
   57.0046  160.8925   -1.7053 C   0  0  0  0  0  0  0  0  0  0  0  0
   56.0036  155.9910   -6.6941 C   0  0  0  0  0  0  0  0  0  0  0  0
   55.8695  159.9764   -2.1562 C   0  0  0  0  0  0  0  0  0  0  0  0
   56.5692  154.6381   -6.2452 C   0  0  0  0  0  0  0  0  0  0  0  0
   57.6287  161.3345   -4.0854 N   0  0  0  0  0  0  0  0  0  0  0  0
   53.4527  157.4244   -4.4280 N   0  0  0  0  0  0  0  0  0  0  0  0
   55.3742  156.7118   -5.5856 N   0  0  0  0  0  0  0  0  0  0  0  0
   57.5788  157.3223   -4.7765 N   0  0  0  0  0  0  0  0  0  0  0  0
   56.3424  158.7114   -2.6408 N   0  0  0  0  0  0  0  0  0  0  0  0
   53.6400  158.6957   -2.5305 O   0  0  0  0  0  0  0  0  0  0  0  0
   53.2230  156.1596   -6.3070 O   0  0  0  0  0  0  0  0  0  0  0  0
   59.6158  161.5092   -2.4412 S   0  0  0  0  0  0  0  0  0  0  0  0
   58.6632  161.7827   -5.8916 H   0  0  0  0  0  0  0  0  0  0  0  0
   60.9114  162.0374   -4.4670 H   0  0  0  0  0  0  0  0  0  0  0  0
   54.7330  153.4632   -6.4266 H   0  0  0  0  0  0  0  0  0  0  0  0
   55.9318  152.7795   -5.3225 H   0  0  0  0  0  0  0  0  0  0  0  0
   54.9835  154.1879   -4.8270 H   0  0  0  0  0  0  0  0  0  0  0  0
   56.6915  153.6992   -8.2157 H   0  0  0  0  0  0  0  0  0  0  0  0
   57.7745  152.9993   -7.0050 H   0  0  0  0  0  0  0  0  0  0  0  0
   58.1586  154.5676   -7.7270 H   0  0  0  0  0  0  0  0  0  0  0  0
   56.5827  161.8264   -1.3130 H   0  0  0  0  0  0  0  0  0  0  0  0
   57.5508  160.4342   -0.8708 H   0  0  0  0  0  0  0  0  0  0  0  0
   56.7961  156.6213   -7.1118 H   0  0  0  0  0  0  0  0  0  0  0  0
   55.2506  155.8432   -7.4761 H   0  0  0  0  0  0  0  0  0  0  0  0
   55.2051  159.7630   -1.3130 H   0  0  0  0  0  0  0  0  0  0  0  0
   55.2738  160.4336   -2.9531 H   0  0  0  0  0  0  0  0  0  0  0  0
   57.2820  154.8423   -5.4353 H   0  0  0  0  0  0  0  0  0  0  0  0
   52.4402  157.4471   -4.3448 H   0  0  0  0  0  0  0  0  0  0  0  0
   58.1156  157.7949   -4.0940 H   0  0  0  0  0  0  0  0  0  0  0  0
   57.9579  156.8233   -5.5411 H   0  0  0  0  0  0  0  0  0  0  0  0
   57.1660  158.2798   -2.3014 H   0  0  0  0  0  0  0  0  0  0  0  0
  1  2  2  0  0  0  0
  1 14  1  0  0  0  0
  2 21  1  0  0  0  0
  3 10  1  0  0  0  0
  3 14  2  0  0  0  0
  3 21  1  0  0  0  0
  4  5  2  0  0  0  0
  4  6  1  0  0  0  0
  4 18  1  0  0  0  0
  5 16  1  0  0  0  0
  5 17  1  0  0  0  0
  6 15  1  0  0  0  0
  6 19  2  0  0  0  0
  7 15  1  0  0  0  0
  7 16  1  0  0  0  0
  7 20  2  0  0  0  0
  8 13  1  0  0  0  0
  9 13  1  0  0  0  0
 10 12  1  0  0  0  0
 11 13  1  0  0  0  0
 11 16  1  0  0  0  0
 12 18  1  0  0  0  0
  1 22  1  0  0  0  0
  2 23  1  0  0  0  0
  8 24  1  0  0  0  0
  8 25  1  0  0  0  0
  8 26  1  0  0  0  0
  9 27  1  0  0  0  0
  9 28  1  0  0  0  0
  9 29  1  0  0  0  0
 10 30  1  0  0  0  0
 10 31  1  0  0  0  0
 11 32  1  0  0  0  0
 11 33  1  0  0  0  0
 12 34  1  0  0  0  0
 12 35  1  0  0  0  0
 13 36  1  0  0  0  0
 15 37  1  0  0  0  0
 17 38  1  0  0  0  0
 17 39  1  0  0  0  0
 18 40  1  0  0  0  0
M  END
> <FRED Chemgauss4 score>
-7.059151

$$$$
C40369350	P61284191
  -OEChem-05122015073D

 31 31  0     0  0  0  0  0  0999 V2000
   55.9834  160.0068   -2.4423 C   0  0  0  0  0  0  0  0  0  0  0  0
   55.1941  160.9850   -3.0470 C   0  0  0  0  0  0  0  0  0  0  0  0
   57.1119  160.3755   -1.7101 C   0  0  0  0  0  0  0  0  0  0  0  0
   55.5334  162.3320   -2.9196 C   0  0  0  0  0  0  0  0  0  0  0  0
   57.4512  161.7225   -1.5827 C   0  0  0  0  0  0  0  0  0  0  0  0
   56.6619  162.7007   -2.1874 C   0  0  0  0  0  0  0  0  0  0  0  0
   55.6253  158.5858   -2.5768 C   0  0  0  0  0  0  0  0  0  0  0  0
   53.9942  155.9952   -6.1578 C   0  0  0  0  0  0  0  0  0  0  0  0
   57.4656  158.3098   -4.1927 C   0  0  0  0  0  0  0  0  0  0  0  0
   54.6550  157.1930   -5.4868 C   0  0  0  0  0  0  0  0  0  0  0  0
   55.5497  156.7580   -4.3340 C   0  0  0  0  0  0  0  0  0  0  0  0
   54.7905  155.1388   -6.7267 N   0  0  0  0  0  0  0  0  0  0  0  0
   52.6206  155.9516   -6.1050 N   0  0  0  0  0  0  0  0  0  0  0  0
   56.1642  157.8772   -3.6732 N   0  0  0  0  0  0  0  0  0  0  0  0
   54.8866  158.1259   -1.7068 O   0  0  0  0  0  0  0  0  0  0  0  0
   54.0493  154.1041   -7.3051 O   0  0  0  0  0  0  0  0  0  0  0  0
   54.1070  160.6419   -3.7522 F   0  0  0  0  0  0  0  0  0  0  0  0
   57.8778  159.4442   -1.1239 F   0  0  0  0  0  0  0  0  0  0  0  0
   54.7750  163.2715   -3.4991 F   0  0  0  0  0  0  0  0  0  0  0  0
   58.5341  162.0766   -0.8784 F   0  0  0  0  0  0  0  0  0  0  0  0
   56.9865  163.9942   -2.0633 F   0  0  0  0  0  0  0  0  0  0  0  0
   58.2708  157.7784   -3.6789 H   0  0  0  0  0  0  0  0  0  0  0  0
   57.5969  159.3840   -4.0363 H   0  0  0  0  0  0  0  0  0  0  0  0
   57.5334  158.1008   -5.2638 H   0  0  0  0  0  0  0  0  0  0  0  0
   55.2244  157.7617   -6.2311 H   0  0  0  0  0  0  0  0  0  0  0  0
   53.8631  157.8485   -5.1051 H   0  0  0  0  0  0  0  0  0  0  0  0
   54.9610  156.2259   -3.5804 H   0  0  0  0  0  0  0  0  0  0  0  0
   56.3531  156.0970   -4.6743 H   0  0  0  0  0  0  0  0  0  0  0  0
   52.0775  156.6780   -5.6505 H   0  0  0  0  0  0  0  0  0  0  0  0
   52.1064  155.1892   -6.5330 H   0  0  0  0  0  0  0  0  0  0  0  0
   54.7518  153.5499   -7.6852 H   0  0  0  0  0  0  0  0  0  0  0  0
  1  2  1  0  0  0  0
  1  3  2  0  0  0  0
  1  7  1  0  0  0  0
  2  4  2  0  0  0  0
  2 17  1  0  0  0  0
  3  5  1  0  0  0  0
  3 18  1  0  0  0  0
  4  6  1  0  0  0  0
  4 19  1  0  0  0  0
  5  6  2  0  0  0  0
  5 20  1  0  0  0  0
  6 21  1  0  0  0  0
  7 14  1  0  0  0  0
  7 15  2  0  0  0  0
  8 10  1  0  0  0  0
  8 12  2  0  0  0  0
  8 13  1  0  0  0  0
  9 14  1  0  0  0  0
 10 11  1  0  0  0  0
 11 14  1  0  0  0  0
 12 16  1  0  0  0  0
  9 22  1  0  0  0  0
  9 23  1  0  0  0  0
  9 24  1  0  0  0  0
 10 25  1  0  0  0  0
 10 26  1  0  0  0  0
 11 27  1  0  0  0  0
 11 28  1  0  0  0  0
 13 29  1  0  0  0  0
 13 30  1  0  0  0  0
 16 31  1  0  0  0  0
M  END
> <FRED Chemgauss4 score>
-7.057766

$$$$
C51840091	P77649079
  -OEChem-05122015073D

 32 32  0     1  0  0  0  0  0999 V2000
   55.2408  158.6624   -2.5049 C   0  0  0  0  0  0  0  0  0  0  0  0
   56.3325  157.4492   -4.1760 C   0  0  0  0  0  0  0  0  0  0  0  0
   56.3783  158.4855   -3.2660 C   0  0  0  0  0  0  0  0  0  0  0  0
   54.2169  156.9157   -3.5383 C   0  0  0  0  0  0  0  0  0  0  0  0
   56.4473  164.5089   -2.4570 C   0  0  0  0  0  0  0  0  0  0  0  0
   57.4517  161.2349   -5.2131 C   0  0  0  0  0  0  0  0  0  0  0  0
   57.4210  162.2461   -2.9688 C   0  0  0  0  0  0  0  0  0  0  0  0
   56.2837  163.2232   -3.2563 C   0  0  1  0  0  0  0  0  0  0  0  0
   54.1380  157.8931   -2.6153 N   0  0  0  0  0  0  0  0  0  0  0  0
   55.2643  156.6414   -4.3392 N   0  0  0  0  0  0  0  0  0  0  0  0
   53.1309  154.9041   -4.3728 N   0  0  0  0  0  0  0  0  0  0  0  0
   53.0799  156.0909   -3.6814 N   0  0  0  0  0  0  0  0  0  0  0  0
   57.2378  161.0382   -3.7413 N   0  0  2  0  0  0  0  0  0  0  0  0
   58.0354  159.6927   -1.6643 O   0  0  0  0  0  0  0  0  0  0  0  0
   58.8498  158.9655   -3.9209 O   0  0  0  0  0  0  0  0  0  0  0  0
   55.0509  162.6091   -2.8853 O   0  0  0  0  0  0  0  0  0  0  0  0
   57.8016  159.5240   -3.0867 S   0  0  0  0  0  0  0  0  0  0  0  0
   55.1746  159.4503   -1.7614 H   0  0  0  0  0  0  0  0  0  0  0  0
   57.1754  157.2260   -4.8223 H   0  0  0  0  0  0  0  0  0  0  0  0
   56.4966  164.3061   -1.3828 H   0  0  0  0  0  0  0  0  0  0  0  0
   57.3551  165.0441   -2.7567 H   0  0  0  0  0  0  0  0  0  0  0  0
   55.6069  165.1862   -2.6441 H   0  0  0  0  0  0  0  0  0  0  0  0
   57.3003  160.2915   -5.7442 H   0  0  0  0  0  0  0  0  0  0  0  0
   58.4694  161.5865   -5.4035 H   0  0  0  0  0  0  0  0  0  0  0  0
   56.7469  161.9747   -5.6020 H   0  0  0  0  0  0  0  0  0  0  0  0
   58.3883  162.6865   -3.2335 H   0  0  0  0  0  0  0  0  0  0  0  0
   57.4436  161.9805   -1.9068 H   0  0  0  0  0  0  0  0  0  0  0  0
   56.2372  163.4549   -4.3266 H   0  0  0  0  0  0  0  0  0  0  0  0
   52.3017  154.8426   -4.9617 H   0  0  0  0  0  0  0  0  0  0  0  0
   53.0592  154.1371   -3.7055 H   0  0  0  0  0  0  0  0  0  0  0  0
   52.2825  156.2777   -3.0916 H   0  0  0  0  0  0  0  0  0  0  0  0
   54.3517  163.2466   -3.0963 H   0  0  0  0  0  0  0  0  0  0  0  0
  1  3  1  0  0  0  0
  1  9  2  0  0  0  0
  2  3  2  0  0  0  0
  2 10  1  0  0  0  0
  3 17  1  0  0  0  0
  4  9  1  0  0  0  0
  4 10  2  0  0  0  0
  4 12  1  0  0  0  0
  5  8  1  0  0  0  0
  6 13  1  0  0  0  0
  7  8  1  0  0  0  0
  7 13  1  0  0  0  0
  8 16  1  0  0  0  0
 11 12  1  0  0  0  0
 13 17  1  0  0  0  0
 14 17  2  0  0  0  0
 15 17  2  0  0  0  0
  1 18  1  0  0  0  0
  2 19  1  0  0  0  0
  5 20  1  0  0  0  0
  5 21  1  0  0  0  0
  5 22  1  0  0  0  0
  6 23  1  0  0  0  0
  6 24  1  0  0  0  0
  6 25  1  0  0  0  0
  7 26  1  0  0  0  0
  7 27  1  0  0  0  0
  8 28  1  0  0  0  0
 11 29  1  0  0  0  0
 11 30  1  0  0  0  0
 12 31  1  0  0  0  0
 16 32  1  0  0  0  0
M  END
> <FRED Chemgauss4 score>
-7.051989

$$$$
C82583507	P129059864
  -OEChem-05122015073D

 29 30  0     1  0  0  0  0  0999 V2000
   59.1257  158.1506   -5.5770 C   0  0  0  0  0  0  0  0  0  0  0  0
   57.8913  158.2508   -4.9347 C   0  0  0  0  0  0  0  0  0  0  0  0
   59.4099  157.0070   -6.3168 C   0  0  0  0  0  0  0  0  0  0  0  0
   57.0046  157.1761   -5.0792 C   0  0  0  0  0  0  0  0  0  0  0  0
   57.4170  156.0959   -5.8471 C   0  0  0  0  0  0  0  0  0  0  0  0
   55.3906  155.7811   -5.0462 C   0  0  0  0  0  0  0  0  0  0  0  0
   57.6846  153.4861   -6.9731 C   0  0  0  0  0  0  0  0  0  0  0  0
   56.3216  153.9296   -6.4699 C   0  0  0  0  0  0  0  0  0  0  0  0
   53.4629  155.4695   -3.4360 C   0  0  0  0  0  0  0  0  0  0  0  0
   54.1040  155.1001   -4.7924 C   0  0  1  0  0  0  0  0  0  0  0  0
   58.5881  155.9427   -6.4870 N   0  0  0  0  0  0  0  0  0  0  0  0
   55.7395  156.9645   -4.5873 N   0  0  0  0  0  0  0  0  0  0  0  0
   56.3729  155.2154   -5.8140 N   0  0  0  0  0  0  0  0  0  0  0  0
   53.1370  155.3373   -5.8608 N   0  0  0  0  0  0  0  0  0  0  0  0
   54.3450  155.1477   -2.3655 O   0  0  0  0  0  0  0  0  0  0  0  0
   59.8521  158.9525   -5.5002 H   0  0  0  0  0  0  0  0  0  0  0  0
   57.6346  159.1264   -4.3492 H   0  0  0  0  0  0  0  0  0  0  0  0
   60.3677  156.9173   -6.8220 H   0  0  0  0  0  0  0  0  0  0  0  0
   58.0964  154.2068   -7.6874 H   0  0  0  0  0  0  0  0  0  0  0  0
   57.6069  152.5159   -7.4735 H   0  0  0  0  0  0  0  0  0  0  0  0
   58.3982  153.3888   -6.1482 H   0  0  0  0  0  0  0  0  0  0  0  0
   55.9179  153.2025   -5.7562 H   0  0  0  0  0  0  0  0  0  0  0  0
   55.6085  154.0019   -7.2989 H   0  0  0  0  0  0  0  0  0  0  0  0
   53.2687  156.5468   -3.3927 H   0  0  0  0  0  0  0  0  0  0  0  0
   52.5196  154.9360   -3.2764 H   0  0  0  0  0  0  0  0  0  0  0  0
   54.2263  153.9971   -4.7984 H   0  0  0  0  0  0  0  0  0  0  0  0
   52.1684  155.2368   -5.6475 H   0  0  0  0  0  0  0  0  0  0  0  0
   53.4758  155.3882   -6.7971 H   0  0  0  0  0  0  0  0  0  0  0  0
   53.8909  155.4003   -1.5463 H   0  0  0  0  0  0  0  0  0  0  0  0
  1  2  1  0  0  0  0
  1  3  2  0  0  0  0
  2  4  2  0  0  0  0
  3 11  1  0  0  0  0
  4  5  1  0  0  0  0
  4 12  1  0  0  0  0
  5 11  2  0  0  0  0
  5 13  1  0  0  0  0
  6 10  1  0  0  0  0
  6 12  2  0  0  0  0
  6 13  1  0  0  0  0
  7  8  1  0  0  0  0
  8 13  1  0  0  0  0
  9 10  1  0  0  0  0
  9 15  1  0  0  0  0
 10 14  1  0  0  0  0
  1 16  1  0  0  0  0
  2 17  1  0  0  0  0
  3 18  1  0  0  0  0
  7 19  1  0  0  0  0
  7 20  1  0  0  0  0
  7 21  1  0  0  0  0
  8 22  1  0  0  0  0
  8 23  1  0  0  0  0
  9 24  1  0  0  0  0
  9 25  1  0  0  0  0
 10 26  1  0  0  0  0
 14 27  1  0  0  0  0
 14 28  1  0  0  0  0
 15 29  1  0  0  0  0
M  END
> <FRED Chemgauss4 score>
-7.049834

$$$$
C35367280	P52475196
  -OEChem-05122015073D

 43 44  0     1  0  0  0  0  0999 V2000
   56.1886  154.5528   -4.8345 C   0  0  0  0  0  0  0  0  0  0  0  0
   54.3748  155.8109   -5.8165 C   0  0  0  0  0  0  0  0  0  0  0  0
   56.0908  153.6118   -5.8594 C   0  0  0  0  0  0  0  0  0  0  0  0
   54.2770  154.8699   -6.8414 C   0  0  0  0  0  0  0  0  0  0  0  0
   55.3306  155.6524   -4.8130 C   0  0  0  0  0  0  0  0  0  0  0  0
   55.1350  153.7703   -6.8629 C   0  0  0  0  0  0  0  0  0  0  0  0
   55.5756  159.2087   -2.0272 C   0  0  0  0  0  0  0  0  0  0  0  0
   57.4973  159.4746   -3.2766 C   0  0  0  0  0  0  0  0  0  0  0  0
   56.5131  159.9944   -1.1525 C   0  0  0  0  0  0  0  0  0  0  0  0
   57.6749  160.3867   -2.0762 C   0  0  1  0  0  0  0  0  0  0  0  0
   59.0309  160.1531   -1.4143 C   0  0  0  0  0  0  0  0  0  0  0  0
   56.1820  162.0695   -3.1913 C   0  0  0  0  0  0  0  0  0  0  0  0
   57.7499  162.7945   -1.3693 C   0  0  0  0  0  0  0  0  0  0  0  0
   55.6858  158.0810   -4.2469 C   0  0  0  0  0  0  0  0  0  0  0  0
   55.4355  156.6723   -3.7025 C   0  0  1  0  0  0  0  0  0  0  0  0
   57.5428  161.8405   -2.5412 C   0  0  0  0  0  0  0  0  0  0  0  0
   56.2363  158.9206   -3.2002 N   0  0  0  0  0  0  0  0  0  0  0  0
   55.0371  152.8202   -7.9004 N   0  0  0  0  0  0  0  0  0  0  0  0
   54.4494  158.8704   -1.6910 O   0  0  0  0  0  0  0  0  0  0  0  0
   58.3292  159.3115   -4.1592 O   0  0  0  0  0  0  0  0  0  0  0  0
   54.2189  156.6526   -2.9552 O   0  0  0  0  0  0  0  0  0  0  0  0
   56.9354  154.4208   -4.0562 H   0  0  0  0  0  0  0  0  0  0  0  0
   53.7010  156.6634   -5.8070 H   0  0  0  0  0  0  0  0  0  0  0  0
   56.7633  152.7579   -5.8659 H   0  0  0  0  0  0  0  0  0  0  0  0
   53.5281  155.0031   -7.6179 H   0  0  0  0  0  0  0  0  0  0  0  0
   55.9941  160.8613   -0.7323 H   0  0  0  0  0  0  0  0  0  0  0  0
   56.8366  159.3413   -0.3345 H   0  0  0  0  0  0  0  0  0  0  0  0
   59.1420  160.8143   -0.5563 H   0  0  0  0  0  0  0  0  0  0  0  0
   59.8294  160.3560   -2.1262 H   0  0  0  0  0  0  0  0  0  0  0  0
   59.1056  159.1195   -1.0798 H   0  0  0  0  0  0  0  0  0  0  0  0
   55.3653  161.8912   -2.4832 H   0  0  0  0  0  0  0  0  0  0  0  0
   56.0406  161.4005   -4.0466 H   0  0  0  0  0  0  0  0  0  0  0  0
   56.0967  163.0993   -3.5540 H   0  0  0  0  0  0  0  0  0  0  0  0
   56.9929  162.6438   -0.5920 H   0  0  0  0  0  0  0  0  0  0  0  0
   57.6890  163.8354   -1.7042 H   0  0  0  0  0  0  0  0  0  0  0  0
   58.7354  162.6464   -0.9151 H   0  0  0  0  0  0  0  0  0  0  0  0
   54.7534  158.5334   -4.6019 H   0  0  0  0  0  0  0  0  0  0  0  0
   56.3932  158.0616   -5.0832 H   0  0  0  0  0  0  0  0  0  0  0  0
   56.2366  156.3844   -3.0105 H   0  0  0  0  0  0  0  0  0  0  0  0
   58.3216  162.0310   -3.2872 H   0  0  0  0  0  0  0  0  0  0  0  0
   55.6892  152.0627   -7.9316 H   0  0  0  0  0  0  0  0  0  0  0  0
   54.3796  152.9703   -8.6389 H   0  0  0  0  0  0  0  0  0  0  0  0
   54.3177  157.3143   -2.2542 H   0  0  0  0  0  0  0  0  0  0  0  0
  1  3  2  0  0  0  0
  1  5  1  0  0  0  0
  2  4  1  0  0  0  0
  2  5  2  0  0  0  0
  3  6  1  0  0  0  0
  4  6  2  0  0  0  0
  5 15  1  0  0  0  0
  6 18  1  0  0  0  0
  7  9  1  0  0  0  0
  7 17  1  0  0  0  0
  7 19  2  0  0  0  0
  8 10  1  0  0  0  0
  8 17  1  0  0  0  0
  8 20  2  0  0  0  0
  9 10  1  0  0  0  0
 10 11  1  0  0  0  0
 10 16  1  0  0  0  0
 12 16  1  0  0  0  0
 13 16  1  0  0  0  0
 14 15  1  0  0  0  0
 14 17  1  0  0  0  0
 15 21  1  0  0  0  0
  1 22  1  0  0  0  0
  2 23  1  0  0  0  0
  3 24  1  0  0  0  0
  4 25  1  0  0  0  0
  9 26  1  0  0  0  0
  9 27  1  0  0  0  0
 11 28  1  0  0  0  0
 11 29  1  0  0  0  0
 11 30  1  0  0  0  0
 12 31  1  0  0  0  0
 12 32  1  0  0  0  0
 12 33  1  0  0  0  0
 13 34  1  0  0  0  0
 13 35  1  0  0  0  0
 13 36  1  0  0  0  0
 14 37  1  0  0  0  0
 14 38  1  0  0  0  0
 15 39  1  0  0  0  0
 16 40  1  0  0  0  0
 18 41  1  0  0  0  0
 18 42  1  0  0  0  0
 21 43  1  0  0  0  0
M  END
> <FRED Chemgauss4 score>
-7.046391

$$$$
C83500168	P130624190
  -OEChem-05122015073D

 32 32  0     1  0  0  0  0  0999 V2000
   55.0580  157.4613   -3.1587 C   0  0  0  0  0  0  0  0  0  0  0  0
   54.1566  156.9950   -4.9827 C   0  0  0  0  0  0  0  0  0  0  0  0
   57.7255  162.0024   -0.2869 C   0  0  0  0  0  0  0  0  0  0  0  0
   52.8992  157.7054   -7.0579 C   0  0  0  0  0  0  0  0  0  0  0  0
   58.8976  159.3847   -1.3099 C   0  0  0  0  0  0  0  0  0  0  0  0
   56.1292  157.7686   -2.1489 C   0  0  0  0  0  0  0  0  0  0  0  0
   57.5645  160.6572    0.4109 C   0  0  0  0  0  0  0  0  0  0  0  0
   53.8186  156.6686   -6.3774 C   0  0  2  0  0  0  0  0  0  0  0  0
   57.5780  159.4551   -0.5449 C   0  0  1  0  0  0  0  0  0  0  0  0
   55.3460  157.2069   -4.4690 N   0  0  0  0  0  0  0  0  0  0  0  0
   53.7652  157.4202   -2.8293 N   0  0  0  0  0  0  0  0  0  0  0  0
   53.2106  157.1201   -4.0136 N   0  0  0  0  0  0  0  0  0  0  0  0
   53.2218  155.3431   -6.5200 N   0  0  0  0  0  0  0  0  0  0  0  0
   56.2057  159.5282   -1.7509 S   0  0  0  0  0  0  0  0  0  0  0  0
   58.6322  162.0390   -0.8974 H   0  0  0  0  0  0  0  0  0  0  0  0
   56.8739  162.1830   -0.9511 H   0  0  0  0  0  0  0  0  0  0  0  0
   57.7639  162.8194    0.4409 H   0  0  0  0  0  0  0  0  0  0  0  0
   51.9691  157.8191   -6.4903 H   0  0  0  0  0  0  0  0  0  0  0  0
   53.3752  158.6898   -7.1300 H   0  0  0  0  0  0  0  0  0  0  0  0
   52.6378  157.3990   -8.0770 H   0  0  0  0  0  0  0  0  0  0  0  0
   59.0468  160.2976   -1.8973 H   0  0  0  0  0  0  0  0  0  0  0  0
   58.9092  158.5431   -2.0116 H   0  0  0  0  0  0  0  0  0  0  0  0
   59.7554  159.2838   -0.6355 H   0  0  0  0  0  0  0  0  0  0  0  0
   55.9539  157.2044   -1.2262 H   0  0  0  0  0  0  0  0  0  0  0  0
   57.1066  157.4508   -2.5283 H   0  0  0  0  0  0  0  0  0  0  0  0
   56.6451  160.6658    1.0098 H   0  0  0  0  0  0  0  0  0  0  0  0
   58.3936  160.5507    1.1222 H   0  0  0  0  0  0  0  0  0  0  0  0
   54.7313  156.6125   -7.0089 H   0  0  0  0  0  0  0  0  0  0  0  0
   57.4578  158.5307    0.0312 H   0  0  0  0  0  0  0  0  0  0  0  0
   52.2043  157.0198   -4.0778 H   0  0  0  0  0  0  0  0  0  0  0  0
   53.5660  154.6092   -5.9399 H   0  0  0  0  0  0  0  0  0  0  0  0
   52.6479  155.1707   -7.3167 H   0  0  0  0  0  0  0  0  0  0  0  0
  1  6  1  0  0  0  0
  1 10  1  0  0  0  0
  1 11  2  0  0  0  0
  2  8  1  0  0  0  0
  2 10  2  0  0  0  0
  2 12  1  0  0  0  0
  3  7  1  0  0  0  0
  4  8  1  0  0  0  0
  5  9  1  0  0  0  0
  6 14  1  0  0  0  0
  7  9  1  0  0  0  0
  8 13  1  0  0  0  0
  9 14  1  0  0  0  0
 11 12  1  0  0  0  0
  3 15  1  0  0  0  0
  3 16  1  0  0  0  0
  3 17  1  0  0  0  0
  4 18  1  0  0  0  0
  4 19  1  0  0  0  0
  4 20  1  0  0  0  0
  5 21  1  0  0  0  0
  5 22  1  0  0  0  0
  5 23  1  0  0  0  0
  6 24  1  0  0  0  0
  6 25  1  0  0  0  0
  7 26  1  0  0  0  0
  7 27  1  0  0  0  0
  8 28  1  0  0  0  0
  9 29  1  0  0  0  0
 12 30  1  0  0  0  0
 13 31  1  0  0  0  0
 13 32  1  0  0  0  0
M  END
> <FRED Chemgauss4 score>
-7.044039

$$$$
C93751937	P146891062
  -OEChem-05122015073D

 46 47  0     1  0  0  0  0  0999 V2000
   54.0113  156.3717   -4.1607 C   0  0  0  0  0  0  0  0  0  0  0  0
   56.4924  156.4311   -7.1150 C   0  0  0  0  0  0  0  0  0  0  0  0
   60.0504  162.7662   -5.3945 C   0  0  0  0  0  0  0  0  0  0  0  0
   57.3147  157.6270   -6.6405 C   0  0  0  0  0  0  0  0  0  0  0  0
   59.0942  161.6289   -5.1365 C   0  0  0  0  0  0  0  0  0  0  0  0
   55.1742  156.3133   -6.3493 C   0  0  0  0  0  0  0  0  0  0  0  0
   56.2251  157.4825   -4.3631 C   0  0  0  0  0  0  0  0  0  0  0  0
   60.9094  162.2062   -6.5084 C   0  0  0  0  0  0  0  0  0  0  0  0
   57.5529  157.5833   -5.1279 C   0  0  2  0  0  0  0  0  0  0  0  0
   60.0029  160.4243   -5.3105 C   0  0  1  0  0  0  0  0  0  0  0  0
   55.3597  156.2943   -4.8228 C   0  0  1  0  0  0  0  0  0  0  0  0
   55.3699  153.9177   -5.1580 C   0  0  0  0  0  0  0  0  0  0  0  0
   58.9200  158.5661   -3.4140 C   0  0  0  0  0  0  0  0  0  0  0  0
   59.2650  159.1630   -5.7157 C   0  0  0  0  0  0  0  0  0  0  0  0
   53.3032  157.5073   -4.4758 N   0  0  0  0  0  0  0  0  0  0  0  0
   55.9271  155.0174   -4.3869 N   0  0  0  0  0  0  0  0  0  0  0  0
   58.2751  158.7842   -4.7081 N   0  0  1  0  0  0  0  0  0  0  0  0
   53.5941  155.4820   -3.4232 O   0  0  0  0  0  0  0  0  0  0  0  0
   60.9525  160.7827   -6.3287 O   0  0  0  0  0  0  0  0  0  0  0  0
   56.2829  156.5346   -8.1859 H   0  0  0  0  0  0  0  0  0  0  0  0
   57.0784  155.5119   -6.9986 H   0  0  0  0  0  0  0  0  0  0  0  0
   59.5575  163.7035   -5.6653 H   0  0  0  0  0  0  0  0  0  0  0  0
   60.6634  162.9464   -4.5034 H   0  0  0  0  0  0  0  0  0  0  0  0
   58.2728  157.6395   -7.1748 H   0  0  0  0  0  0  0  0  0  0  0  0
   56.7886  158.5517   -6.9131 H   0  0  0  0  0  0  0  0  0  0  0  0
   58.6266  161.6698   -4.1489 H   0  0  0  0  0  0  0  0  0  0  0  0
   58.3007  161.6369   -5.8937 H   0  0  0  0  0  0  0  0  0  0  0  0
   54.5310  157.1602   -6.6267 H   0  0  0  0  0  0  0  0  0  0  0  0
   54.6396  155.4149   -6.6856 H   0  0  0  0  0  0  0  0  0  0  0  0
   56.4209  157.4142   -3.2835 H   0  0  0  0  0  0  0  0  0  0  0  0
   55.6536  158.4127   -4.4987 H   0  0  0  0  0  0  0  0  0  0  0  0
   60.4643  162.4042   -7.4893 H   0  0  0  0  0  0  0  0  0  0  0  0
   61.9257  162.6101   -6.4983 H   0  0  0  0  0  0  0  0  0  0  0  0
   58.1778  156.7143   -4.8895 H   0  0  0  0  0  0  0  0  0  0  0  0
   60.5652  160.2319   -4.3914 H   0  0  0  0  0  0  0  0  0  0  0  0
   54.2854  153.8788   -5.0274 H   0  0  0  0  0  0  0  0  0  0  0  0
   55.7986  152.9681   -4.8263 H   0  0  0  0  0  0  0  0  0  0  0  0
   55.5919  154.0504   -6.2203 H   0  0  0  0  0  0  0  0  0  0  0  0
   59.4579  159.4665   -3.1058 H   0  0  0  0  0  0  0  0  0  0  0  0
   59.6302  157.7374   -3.4805 H   0  0  0  0  0  0  0  0  0  0  0  0
   58.1714  158.3260   -2.6543 H   0  0  0  0  0  0  0  0  0  0  0  0
   59.9641  158.3288   -5.8270 H   0  0  0  0  0  0  0  0  0  0  0  0
   58.7373  159.3094   -6.6627 H   0  0  0  0  0  0  0  0  0  0  0  0
   53.7224  158.1835   -5.1055 H   0  0  0  0  0  0  0  0  0  0  0  0
   52.3781  157.6963   -4.1038 H   0  0  0  0  0  0  0  0  0  0  0  0
   56.9360  155.0456   -4.5146 H   0  0  0  0  0  0  0  0  0  0  0  0
  1 11  1  0  0  0  0
  1 15  1  0  0  0  0
  1 18  2  0  0  0  0
  2  4  1  0  0  0  0
  2  6  1  0  0  0  0
  3  5  1  0  0  0  0
  3  8  1  0  0  0  0
  4  9  1  0  0  0  0
  5 10  1  0  0  0  0
  6 11  1  0  0  0  0
  7  9  1  0  0  0  0
  7 11  1  0  0  0  0
  8 19  1  0  0  0  0
  9 17  1  0  0  0  0
 10 14  1  0  0  0  0
 10 19  1  0  0  0  0
 11 16  1  0  0  0  0
 12 16  1  0  0  0  0
 13 17  1  0  0  0  0
 14 17  1  0  0  0  0
  2 20  1  0  0  0  0
  2 21  1  0  0  0  0
  3 22  1  0  0  0  0
  3 23  1  0  0  0  0
  4 24  1  0  0  0  0
  4 25  1  0  0  0  0
  5 26  1  0  0  0  0
  5 27  1  0  0  0  0
  6 28  1  0  0  0  0
  6 29  1  0  0  0  0
  7 30  1  0  0  0  0
  7 31  1  0  0  0  0
  8 32  1  0  0  0  0
  8 33  1  0  0  0  0
  9 34  1  0  0  0  0
 10 35  1  0  0  0  0
 12 36  1  0  0  0  0
 12 37  1  0  0  0  0
 12 38  1  0  0  0  0
 13 39  1  0  0  0  0
 13 40  1  0  0  0  0
 13 41  1  0  0  0  0
 14 42  1  0  0  0  0
 14 43  1  0  0  0  0
 15 44  1  0  0  0  0
 15 45  1  0  0  0  0
 16 46  1  0  0  0  0
M  END
> <FRED Chemgauss4 score>
-7.041906

$$$$
C42040419	P63626314
  -OEChem-05122015073D

 18 18  0     1  0  0  0  0  0999 V2000
   54.2126  154.9861   -4.8165 C   0  0  0  0  0  0  0  0  0  0  0  0
   53.7650  156.6787   -3.5969 C   0  0  0  0  0  0  0  0  0  0  0  0
   55.1712  153.9801   -6.9027 C   0  0  0  0  0  0  0  0  0  0  0  0
   54.9039  153.8038   -5.4157 C   0  0  1  0  0  0  0  0  0  0  0  0
   54.7424  155.7233   -3.8693 N   0  0  0  0  0  0  0  0  0  0  0  0
   52.9591  155.3691   -5.1901 N   0  0  0  0  0  0  0  0  0  0  0  0
   52.6711  156.4448   -4.4164 N   0  0  0  0  0  0  0  0  0  0  0  0
   56.1106  153.6438   -4.6534 N   0  0  0  0  0  0  0  0  0  0  0  0
   53.8542  157.5770   -2.7693 O   0  0  0  0  0  0  0  0  0  0  0  0
   53.9983  153.7091   -7.6614 O   0  0  0  0  0  0  0  0  0  0  0  0
   55.4872  155.0061   -7.1186 H   0  0  0  0  0  0  0  0  0  0  0  0
   55.9549  153.2912   -7.2349 H   0  0  0  0  0  0  0  0  0  0  0  0
   54.2842  152.9184   -5.2433 H   0  0  0  0  0  0  0  0  0  0  0  0
   52.3173  154.9690   -5.8598 H   0  0  0  0  0  0  0  0  0  0  0  0
   51.8134  156.9799   -4.4339 H   0  0  0  0  0  0  0  0  0  0  0  0
   56.8687  153.1013   -5.0381 H   0  0  0  0  0  0  0  0  0  0  0  0
   56.1137  153.8950   -3.6766 H   0  0  0  0  0  0  0  0  0  0  0  0
   54.2338  153.8384   -8.5939 H   0  0  0  0  0  0  0  0  0  0  0  0
  1  4  1  0  0  0  0
  1  5  2  0  0  0  0
  1  6  1  0  0  0  0
  2  5  1  0  0  0  0
  2  7  1  0  0  0  0
  2  9  2  0  0  0  0
  3  4  1  0  0  0  0
  3 10  1  0  0  0  0
  4  8  1  0  0  0  0
  6  7  1  0  0  0  0
  3 11  1  0  0  0  0
  3 12  1  0  0  0  0
  4 13  1  0  0  0  0
  6 14  1  0  0  0  0
  7 15  1  0  0  0  0
  8 16  1  0  0  0  0
  8 17  1  0  0  0  0
 10 18  1  0  0  0  0
M  END
> <FRED Chemgauss4 score>
-7.039181

$$$$
C84143509	P131667660
  -OEChem-05122015073D

 36 38  0     0  0  0  0  0  0999 V2000
   58.7992  154.1029   -7.3642 C   0  0  0  0  0  0  0  0  0  0  0  0
   60.0231  154.6322   -7.7870 C   0  0  0  0  0  0  0  0  0  0  0  0
   59.3547  156.8835   -7.1445 C   0  0  0  0  0  0  0  0  0  0  0  0
   58.1198  156.3690   -6.7149 C   0  0  0  0  0  0  0  0  0  0  0  0
   57.8750  155.0039   -6.8344 C   0  0  0  0  0  0  0  0  0  0  0  0
   60.2980  155.9975   -7.6799 C   0  0  0  0  0  0  0  0  0  0  0  0
   56.1508  156.0678   -5.9456 C   0  0  0  0  0  0  0  0  0  0  0  0
   55.6558  152.6752   -7.4611 C   0  0  0  0  0  0  0  0  0  0  0  0
   54.4885  153.3934   -6.8600 C   0  0  0  0  0  0  0  0  0  0  0  0
   55.8563  153.5338   -6.2342 C   0  0  0  0  0  0  0  0  0  0  0  0
   55.5342  156.0562   -2.9618 C   0  0  0  0  0  0  0  0  0  0  0  0
   55.3660  158.3352   -3.9665 C   0  0  0  0  0  0  0  0  0  0  0  0
   54.7777  156.2623   -5.3430 C   0  0  0  0  0  0  0  0  0  0  0  0
   54.7393  156.9330   -3.9440 C   0  0  0  0  0  0  0  0  0  0  0  0
   57.0376  157.0134   -6.1607 N   0  0  0  0  0  0  0  0  0  0  0  0
   56.6085  154.8397   -6.3347 N   0  0  0  0  0  0  0  0  0  0  0  0
   53.3726  157.0272   -3.4589 N   0  0  0  0  0  0  0  0  0  0  0  0
   61.8211  156.6040   -8.2117 Cl  0  0  0  0  0  0  0  0  0  0  0  0
   58.5873  153.0431   -7.4478 H   0  0  0  0  0  0  0  0  0  0  0  0
   60.7655  153.9542   -8.2035 H   0  0  0  0  0  0  0  0  0  0  0  0
   59.5642  157.9457   -7.0593 H   0  0  0  0  0  0  0  0  0  0  0  0
   55.7060  151.6003   -7.3376 H   0  0  0  0  0  0  0  0  0  0  0  0
   56.0336  153.0356   -8.4103 H   0  0  0  0  0  0  0  0  0  0  0  0
   54.0807  154.2360   -7.4050 H   0  0  0  0  0  0  0  0  0  0  0  0
   53.7512  152.8034   -6.3293 H   0  0  0  0  0  0  0  0  0  0  0  0
   56.0403  153.0498   -5.2994 H   0  0  0  0  0  0  0  0  0  0  0  0
   55.1215  155.0416   -2.9123 H   0  0  0  0  0  0  0  0  0  0  0  0
   55.5187  156.4759   -1.9499 H   0  0  0  0  0  0  0  0  0  0  0  0
   56.5813  155.9631   -3.2731 H   0  0  0  0  0  0  0  0  0  0  0  0
   54.8319  158.9990   -4.6549 H   0  0  0  0  0  0  0  0  0  0  0  0
   56.4133  158.2925   -4.2890 H   0  0  0  0  0  0  0  0  0  0  0  0
   55.3646  158.7963   -2.9728 H   0  0  0  0  0  0  0  0  0  0  0  0
   54.2783  155.2845   -5.2942 H   0  0  0  0  0  0  0  0  0  0  0  0
   54.1798  156.8528   -6.0519 H   0  0  0  0  0  0  0  0  0  0  0  0
   53.1622  157.7090   -2.7579 H   0  0  0  0  0  0  0  0  0  0  0  0
   52.7364  156.2881   -3.6818 H   0  0  0  0  0  0  0  0  0  0  0  0
  1  2  2  0  0  0  0
  1  5  1  0  0  0  0
  2  6  1  0  0  0  0
  3  4  1  0  0  0  0
  3  6  2  0  0  0  0
  4  5  2  0  0  0  0
  4 15  1  0  0  0  0
  5 16  1  0  0  0  0
  6 18  1  0  0  0  0
  7 13  1  0  0  0  0
  7 15  2  0  0  0  0
  7 16  1  0  0  0  0
  8  9  1  0  0  0  0
  8 10  1  0  0  0  0
  9 10  1  0  0  0  0
 10 16  1  0  0  0  0
 11 14  1  0  0  0  0
 12 14  1  0  0  0  0
 13 14  1  0  0  0  0
 14 17  1  0  0  0  0
  1 19  1  0  0  0  0
  2 20  1  0  0  0  0
  3 21  1  0  0  0  0
  8 22  1  0  0  0  0
  8 23  1  0  0  0  0
  9 24  1  0  0  0  0
  9 25  1  0  0  0  0
 10 26  1  0  0  0  0
 11 27  1  0  0  0  0
 11 28  1  0  0  0  0
 11 29  1  0  0  0  0
 12 30  1  0  0  0  0
 12 31  1  0  0  0  0
 12 32  1  0  0  0  0
 13 33  1  0  0  0  0
 13 34  1  0  0  0  0
 17 35  1  0  0  0  0
 17 36  1  0  0  0  0
M  END
> <FRED Chemgauss4 score>
-7.037356

$$$$
C01646389	P06812831
  -OEChem-05122015073D

 42 43  0     0  0  0  0  0  0999 V2000
   55.7926  156.7144   -5.4942 C   0  0  0  0  0  0  0  0  0  0  0  0
   54.4570  156.5856   -5.6712 C   0  0  0  0  0  0  0  0  0  0  0  0
   56.7235  155.6461   -5.9646 C   0  0  0  0  0  0  0  0  0  0  0  0
   54.7419  154.3890   -6.7762 C   0  0  0  0  0  0  0  0  0  0  0  0
   56.1797  158.2511   -3.5972 C   0  0  0  0  0  0  0  0  0  0  0  0
   59.6025  161.2385   -1.6160 C   0  0  0  0  0  0  0  0  0  0  0  0
   59.3685  159.7414   -1.4318 C   0  0  0  0  0  0  0  0  0  0  0  0
   58.5871  161.8605   -2.5709 C   0  0  0  0  0  0  0  0  0  0  0  0
   57.9307  159.4451   -1.0033 C   0  0  0  0  0  0  0  0  0  0  0  0
   57.1511  161.5595   -2.1394 C   0  0  0  0  0  0  0  0  0  0  0  0
   56.8891  160.0597   -1.9478 C   0  0  0  0  0  0  0  0  0  0  0  0
   52.4901  155.3400   -6.4704 C   0  0  0  0  0  0  0  0  0  0  0  0
   57.0038  153.4871   -7.0641 C   0  0  0  0  0  0  0  0  0  0  0  0
   53.9431  155.4421   -6.3001 N   0  0  0  0  0  0  0  0  0  0  0  0
   56.1266  154.5502   -6.5818 N   0  0  0  0  0  0  0  0  0  0  0  0
   53.6146  157.5878   -5.2270 N   0  0  0  0  0  0  0  0  0  0  0  0
   56.3815  157.7934   -4.8914 N   0  0  0  0  0  0  0  0  0  0  0  0
   56.9092  159.3723   -3.2408 N   0  0  0  0  0  0  0  0  0  0  0  0
   57.9353  155.7795   -5.7899 O   0  0  0  0  0  0  0  0  0  0  0  0
   54.2739  153.3868   -7.3279 O   0  0  0  0  0  0  0  0  0  0  0  0
   55.1497  157.5784   -2.4480 S   0  0  0  0  0  0  0  0  0  0  0  0
   59.5501  161.7421   -0.6430 H   0  0  0  0  0  0  0  0  0  0  0  0
   60.6162  161.4034   -2.0046 H   0  0  0  0  0  0  0  0  0  0  0  0
   59.5889  159.2158   -2.3671 H   0  0  0  0  0  0  0  0  0  0  0  0
   60.0607  159.3536   -0.6749 H   0  0  0  0  0  0  0  0  0  0  0  0
   58.7363  162.9462   -2.6068 H   0  0  0  0  0  0  0  0  0  0  0  0
   58.7536  161.4805   -3.5847 H   0  0  0  0  0  0  0  0  0  0  0  0
   57.7848  158.3522   -0.9477 H   0  0  0  0  0  0  0  0  0  0  0  0
   57.7724  159.8177    0.0228 H   0  0  0  0  0  0  0  0  0  0  0  0
   56.9308  162.1009   -1.2039 H   0  0  0  0  0  0  0  0  0  0  0  0
   56.4517  161.9674   -2.8900 H   0  0  0  0  0  0  0  0  0  0  0  0
   55.8918  159.9110   -1.5405 H   0  0  0  0  0  0  0  0  0  0  0  0
   52.1917  155.7816   -7.4248 H   0  0  0  0  0  0  0  0  0  0  0  0
   51.9768  155.8684   -5.6624 H   0  0  0  0  0  0  0  0  0  0  0  0
   52.1805  154.2916   -6.4557 H   0  0  0  0  0  0  0  0  0  0  0  0
   57.1568  152.7414   -6.2796 H   0  0  0  0  0  0  0  0  0  0  0  0
   57.9747  153.8996   -7.3518 H   0  0  0  0  0  0  0  0  0  0  0  0
   56.5597  152.9964   -7.9343 H   0  0  0  0  0  0  0  0  0  0  0  0
   54.0259  158.3729   -4.7901 H   0  0  0  0  0  0  0  0  0  0  0  0
   52.6441  157.4682   -5.3689 H   0  0  0  0  0  0  0  0  0  0  0  0
   57.0362  158.2964   -5.4809 H   0  0  0  0  0  0  0  0  0  0  0  0
   57.5245  159.7572   -3.9511 H   0  0  0  0  0  0  0  0  0  0  0  0
  1  2  2  0  0  0  0
  1  3  1  0  0  0  0
  1 17  1  0  0  0  0
  2 14  1  0  0  0  0
  2 16  1  0  0  0  0
  3 15  1  0  0  0  0
  3 19  2  0  0  0  0
  4 14  1  0  0  0  0
  4 15  1  0  0  0  0
  4 20  2  0  0  0  0
  5 17  1  0  0  0  0
  5 18  1  0  0  0  0
  5 21  2  0  0  0  0
  6  7  1  0  0  0  0
  6  8  1  0  0  0  0
  7  9  1  0  0  0  0
  8 10  1  0  0  0  0
  9 11  1  0  0  0  0
 10 11  1  0  0  0  0
 11 18  1  0  0  0  0
 12 14  1  0  0  0  0
 13 15  1  0  0  0  0
  6 22  1  0  0  0  0
  6 23  1  0  0  0  0
  7 24  1  0  0  0  0
  7 25  1  0  0  0  0
  8 26  1  0  0  0  0
  8 27  1  0  0  0  0
  9 28  1  0  0  0  0
  9 29  1  0  0  0  0
 10 30  1  0  0  0  0
 10 31  1  0  0  0  0
 11 32  1  0  0  0  0
 12 33  1  0  0  0  0
 12 34  1  0  0  0  0
 12 35  1  0  0  0  0
 13 36  1  0  0  0  0
 13 37  1  0  0  0  0
 13 38  1  0  0  0  0
 16 39  1  0  0  0  0
 16 40  1  0  0  0  0
 17 41  1  0  0  0  0
 18 42  1  0  0  0  0
M  END
> <FRED Chemgauss4 score>
-7.029176

$$$$
C40304308	P61186967
  -OEChem-05122015073D

 34 34  0     0  0  0  0  0  0999 V2000
   53.8682  156.4732   -3.9328 C   0  0  0  0  0  0  0  0  0  0  0  0
   56.1416  156.3243   -4.7365 C   0  0  0  0  0  0  0  0  0  0  0  0
   55.2020  156.8755   -3.8654 C   0  0  0  0  0  0  0  0  0  0  0  0
   53.4739  155.5195   -4.8713 C   0  0  0  0  0  0  0  0  0  0  0  0
   55.7474  155.3706   -5.6751 C   0  0  0  0  0  0  0  0  0  0  0  0
   54.4135  154.9683   -5.7424 C   0  0  0  0  0  0  0  0  0  0  0  0
   55.6218  157.8908   -2.8653 C   0  0  0  0  0  0  0  0  0  0  0  0
   56.6262  160.9840   -2.6119 C   0  0  0  0  0  0  0  0  0  0  0  0
   56.0972  165.4931   -1.4893 C   0  0  0  0  0  0  0  0  0  0  0  0
   57.2786  159.6562   -2.3230 C   0  0  0  0  0  0  0  0  0  0  0  0
   56.5022  164.0394   -1.2903 C   0  0  0  0  0  0  0  0  0  0  0  0
   57.1248  163.4253   -2.5383 C   0  0  0  0  0  0  0  0  0  0  0  0
   52.1135  155.1362   -4.9102 N   0  0  0  0  0  0  0  0  0  0  0  0
   56.7241  158.6292   -3.2170 N   0  0  0  0  0  0  0  0  0  0  0  0
   57.4874  162.0394   -2.3476 N   0  0  0  0  0  0  0  0  0  0  0  0
   54.9951  157.9921   -1.8138 O   0  0  0  0  0  0  0  0  0  0  0  0
   55.4770  161.0954   -3.0306 O   0  0  0  0  0  0  0  0  0  0  0  0
   56.9647  154.7293   -6.7232 Cl  0  0  0  0  0  0  0  0  0  0  0  0
   53.9030  153.7831   -6.9051 Cl  0  0  0  0  0  0  0  0  0  0  0  0
   53.1365  156.9048   -3.2528 H   0  0  0  0  0  0  0  0  0  0  0  0
   57.1803  156.6427   -4.6774 H   0  0  0  0  0  0  0  0  0  0  0  0
   56.9613  166.1069   -1.7632 H   0  0  0  0  0  0  0  0  0  0  0  0
   55.3582  165.5715   -2.2932 H   0  0  0  0  0  0  0  0  0  0  0  0
   55.6511  165.9109   -0.5816 H   0  0  0  0  0  0  0  0  0  0  0  0
   58.3575  159.7323   -2.4873 H   0  0  0  0  0  0  0  0  0  0  0  0
   57.0899  159.3684   -1.2846 H   0  0  0  0  0  0  0  0  0  0  0  0
   55.6112  163.4617   -1.0183 H   0  0  0  0  0  0  0  0  0  0  0  0
   57.2018  163.9724   -0.4487 H   0  0  0  0  0  0  0  0  0  0  0  0
   56.4113  163.4580   -3.3677 H   0  0  0  0  0  0  0  0  0  0  0  0
   58.0252  163.9686   -2.8418 H   0  0  0  0  0  0  0  0  0  0  0  0
   51.4828  155.5199   -4.2383 H   0  0  0  0  0  0  0  0  0  0  0  0
   51.8302  154.4206   -5.5459 H   0  0  0  0  0  0  0  0  0  0  0  0
   57.2382  158.4629   -4.0628 H   0  0  0  0  0  0  0  0  0  0  0  0
   58.4191  161.8272   -2.0029 H   0  0  0  0  0  0  0  0  0  0  0  0
  1  3  1  0  0  0  0
  1  4  2  0  0  0  0
  2  3  2  0  0  0  0
  2  5  1  0  0  0  0
  3  7  1  0  0  0  0
  4  6  1  0  0  0  0
  4 13  1  0  0  0  0
  5  6  2  0  0  0  0
  5 18  1  0  0  0  0
  6 19  1  0  0  0  0
  7 14  1  0  0  0  0
  7 16  2  0  0  0  0
  8 10  1  0  0  0  0
  8 15  1  0  0  0  0
  8 17  2  0  0  0  0
  9 11  1  0  0  0  0
 10 14  1  0  0  0  0
 11 12  1  0  0  0  0
 12 15  1  0  0  0  0
  1 20  1  0  0  0  0
  2 21  1  0  0  0  0
  9 22  1  0  0  0  0
  9 23  1  0  0  0  0
  9 24  1  0  0  0  0
 10 25  1  0  0  0  0
 10 26  1  0  0  0  0
 11 27  1  0  0  0  0
 11 28  1  0  0  0  0
 12 29  1  0  0  0  0
 12 30  1  0  0  0  0
 13 31  1  0  0  0  0
 13 32  1  0  0  0  0
 14 33  1  0  0  0  0
 15 34  1  0  0  0  0
M  END
> <FRED Chemgauss4 score>
-7.023313

$$$$
C72197386	P112154929
  -OEChem-05122015073D

 24 24  0     1  0  0  0  0  0999 V2000
   57.7755  157.2053   -6.4807 C   0  0  0  0  0  0  0  0  0  0  0  0
   55.2576  153.9125   -5.6804 C   0  0  0  0  0  0  0  0  0  0  0  0
   56.5293  153.6941   -6.2099 C   0  0  0  0  0  0  0  0  0  0  0  0
   55.6647  156.2940   -5.6850 C   0  0  0  0  0  0  0  0  0  0  0  0
   56.9365  156.0755   -6.2146 C   0  0  0  0  0  0  0  0  0  0  0  0
   54.8252  155.2125   -5.4180 C   0  0  0  0  0  0  0  0  0  0  0  0
   57.3688  154.7755   -6.4770 C   0  0  0  0  0  0  0  0  0  0  0  0
   53.4871  156.1716   -3.4957 C   0  0  0  0  0  0  0  0  0  0  0  0
   53.4647  155.4454   -4.8531 C   0  0  1  0  0  0  0  0  0  0  0  0
   58.4553  158.1208   -6.6964 N   0  0  0  0  0  0  0  0  0  0  0  0
   58.6522  154.5246   -7.0145 N   0  0  0  0  0  0  0  0  0  0  0  0
   52.6149  156.1711   -5.7854 N   0  0  0  0  0  0  0  0  0  0  0  0
   54.2420  155.4172   -2.5529 O   0  0  0  0  0  0  0  0  0  0  0  0
   54.6100  153.0642   -5.4761 H   0  0  0  0  0  0  0  0  0  0  0  0
   56.8549  152.6768   -6.4118 H   0  0  0  0  0  0  0  0  0  0  0  0
   55.3192  157.3050   -5.4778 H   0  0  0  0  0  0  0  0  0  0  0  0
   53.9659  157.1520   -3.5949 H   0  0  0  0  0  0  0  0  0  0  0  0
   52.4779  156.3128   -3.0938 H   0  0  0  0  0  0  0  0  0  0  0  0
   52.9375  154.4857   -4.7051 H   0  0  0  0  0  0  0  0  0  0  0  0
   58.9460  153.5797   -7.1462 H   0  0  0  0  0  0  0  0  0  0  0  0
   59.2735  155.2918   -7.1629 H   0  0  0  0  0  0  0  0  0  0  0  0
   51.8321  156.6737   -5.4206 H   0  0  0  0  0  0  0  0  0  0  0  0
   52.7137  155.9827   -6.7619 H   0  0  0  0  0  0  0  0  0  0  0  0
   54.2244  155.9157   -1.7209 H   0  0  0  0  0  0  0  0  0  0  0  0
  1  5  1  0  0  0  0
  1 10  3  0  0  0  0
  2  3  1  0  0  0  0
  2  6  2  0  0  0  0
  3  7  2  0  0  0  0
  4  5  2  0  0  0  0
  4  6  1  0  0  0  0
  5  7  1  0  0  0  0
  6  9  1  0  0  0  0
  7 11  1  0  0  0  0
  8  9  1  0  0  0  0
  8 13  1  0  0  0  0
  9 12  1  0  0  0  0
  2 14  1  0  0  0  0
  3 15  1  0  0  0  0
  4 16  1  0  0  0  0
  8 17  1  0  0  0  0
  8 18  1  0  0  0  0
  9 19  1  0  0  0  0
 11 20  1  0  0  0  0
 11 21  1  0  0  0  0
 12 22  1  0  0  0  0
 12 23  1  0  0  0  0
 13 24  1  0  0  0  0
M  END
> <FRED Chemgauss4 score>
-7.020288

$$$$
C87395422	P136737161
  -OEChem-05122015073D

 25 26  0     1  0  0  0  0  0999 V2000
   55.6371  163.7198   -3.4288 C   0  0  0  0  0  0  0  0  0  0  0  0
   55.3052  155.6165   -4.4542 C   0  0  0  0  0  0  0  0  0  0  0  0
   54.3374  163.2652   -3.5073 C   0  0  0  0  0  0  0  0  0  0  0  0
   54.6137  157.5746   -4.0236 C   0  0  0  0  0  0  0  0  0  0  0  0
   55.3729  161.3764   -3.9202 C   0  0  0  0  0  0  0  0  0  0  0  0
   53.1243  164.0849   -3.3178 C   0  0  0  0  0  0  0  0  0  0  0  0
   55.6149  159.9178   -4.2319 C   0  0  0  0  0  0  0  0  0  0  0  0
   54.3397  159.0605   -4.1251 C   0  0  1  0  0  0  0  0  0  0  0  0
   54.1862  156.7956   -3.0106 N   0  5  0  0  0  0  0  0  0  0  0  0
   55.3069  156.8698   -4.9279 N   0  0  0  0  0  0  0  0  0  0  0  0
   54.6344  155.5285   -3.2888 N   0  0  0  0  0  0  0  0  0  0  0  0
   54.1839  161.9218   -3.7894 N   0  0  0  0  0  0  0  0  0  0  0  0
   53.4695  159.3937   -5.2999 N   0  3  0  0  0  0  0  0  0  0  0  0
   56.7193  162.4208   -3.7164 S   0  0  0  0  0  0  0  0  0  0  0  0
   55.9945  164.7188   -3.2226 H   0  0  0  0  0  0  0  0  0  0  0  0
   55.7831  154.7796   -4.9425 H   0  0  0  0  0  0  0  0  0  0  0  0
   52.7845  164.5178   -4.2728 H   0  0  0  0  0  0  0  0  0  0  0  0
   52.2892  163.4974   -2.8999 H   0  0  0  0  0  0  0  0  0  0  0  0
   53.2937  164.9174   -2.6136 H   0  0  0  0  0  0  0  0  0  0  0  0
   56.4051  159.5267   -3.5775 H   0  0  0  0  0  0  0  0  0  0  0  0
   56.0235  159.8567   -5.2500 H   0  0  0  0  0  0  0  0  0  0  0  0
   53.7509  159.3840   -3.2580 H   0  0  0  0  0  0  0  0  0  0  0  0
   53.3573  158.5744   -5.8971 H   0  0  0  0  0  0  0  0  0  0  0  0
   53.8916  160.1442   -5.8470 H   0  0  0  0  0  0  0  0  0  0  0  0
   52.5494  159.6966   -4.9804 H   0  0  0  0  0  0  0  0  0  0  0  0
  1  3  2  0  0  0  0
  1 14  1  0  0  0  0
  2 10  1  0  0  0  0
  2 11  2  0  0  0  0
  3  6  1  0  0  0  0
  3 12  1  0  0  0  0
  4  8  1  0  0  0  0
  4  9  1  0  0  0  0
  4 10  2  0  0  0  0
  5  7  1  0  0  0  0
  5 12  2  0  0  0  0
  5 14  1  0  0  0  0
  7  8  1  0  0  0  0
  8 13  1  0  0  0  0
  9 11  1  0  0  0  0
  1 15  1  0  0  0  0
  2 16  1  0  0  0  0
  6 17  1  0  0  0  0
  6 18  1  0  0  0  0
  6 19  1  0  0  0  0
  7 20  1  0  0  0  0
  7 21  1  0  0  0  0
  8 22  1  0  0  0  0
 13 23  1  0  0  0  0
 13 24  1  0  0  0  0
 13 25  1  0  0  0  0
M  CHG  2   9  -1  13   1
M  END
> <FRED Chemgauss4 score>
-7.018436

$$$$
C96551227	P152575900
  -OEChem-05122015073D

 25 25  0     1  0  0  0  0  0999 V2000
   57.1987  157.2360   -5.8466 C   0  0  0  0  0  0  0  0  0  0  0  0
   55.8542  157.5127   -5.7677 C   0  0  0  0  0  0  0  0  0  0  0  0
   56.2289  155.3416   -5.8171 C   0  0  0  0  0  0  0  0  0  0  0  0
   55.9289  153.8952   -5.8189 C   0  0  0  0  0  0  0  0  0  0  0  0
   53.8037  156.0558   -5.6723 C   0  0  0  0  0  0  0  0  0  0  0  0
   53.8438  155.8752   -3.1612 C   0  0  0  0  0  0  0  0  0  0  0  0
   53.4162  155.2032   -4.4624 C   0  0  1  0  0  0  0  0  0  0  0  0
   57.4253  155.8828   -5.8773 N   0  0  0  0  0  0  0  0  0  0  0  0
   55.2457  156.2893   -5.7501 N   0  0  0  0  0  0  0  0  0  0  0  0
   56.9000  153.1207   -6.5600 N   0  0  0  0  0  0  0  0  0  0  0  0
   53.4365  155.0608   -2.0672 O   0  0  0  0  0  0  0  0  0  0  0  0
   51.9950  155.0554   -4.4489 O   0  0  0  0  0  0  0  0  0  0  0  0
   58.0151  157.9425   -5.8830 H   0  0  0  0  0  0  0  0  0  0  0  0
   55.2997  158.4397   -5.7245 H   0  0  0  0  0  0  0  0  0  0  0  0
   55.9031  153.4801   -4.7960 H   0  0  0  0  0  0  0  0  0  0  0  0
   54.9425  153.6743   -6.2627 H   0  0  0  0  0  0  0  0  0  0  0  0
   53.3266  157.0424   -5.6322 H   0  0  0  0  0  0  0  0  0  0  0  0
   53.4993  155.5761   -6.6104 H   0  0  0  0  0  0  0  0  0  0  0  0
   53.3683  156.8548   -3.0469 H   0  0  0  0  0  0  0  0  0  0  0  0
   54.9314  155.9878   -3.1139 H   0  0  0  0  0  0  0  0  0  0  0  0
   53.8469  154.1974   -4.5297 H   0  0  0  0  0  0  0  0  0  0  0  0
   56.6142  152.2485   -6.9657 H   0  0  0  0  0  0  0  0  0  0  0  0
   57.8711  153.3620   -6.4822 H   0  0  0  0  0  0  0  0  0  0  0  0
   53.7232  155.5161   -1.2598 H   0  0  0  0  0  0  0  0  0  0  0  0
   51.6286  155.9498   -4.3843 H   0  0  0  0  0  0  0  0  0  0  0  0
  1  2  2  0  0  0  0
  1  8  1  0  0  0  0
  2  9  1  0  0  0  0
  3  4  1  0  0  0  0
  3  8  2  0  0  0  0
  3  9  1  0  0  0  0
  4 10  1  0  0  0  0
  5  7  1  0  0  0  0
  5  9  1  0  0  0  0
  6  7  1  0  0  0  0
  6 11  1  0  0  0  0
  7 12  1  0  0  0  0
  1 13  1  0  0  0  0
  2 14  1  0  0  0  0
  4 15  1  0  0  0  0
  4 16  1  0  0  0  0
  5 17  1  0  0  0  0
  5 18  1  0  0  0  0
  6 19  1  0  0  0  0
  6 20  1  0  0  0  0
  7 21  1  0  0  0  0
 10 22  1  0  0  0  0
 10 23  1  0  0  0  0
 11 24  1  0  0  0  0
 12 25  1  0  0  0  0
M  END
> <FRED Chemgauss4 score>
-7.013103

$$$$
C90312594	P141186229
  -OEChem-05122015073D

 37 38  0     1  0  0  0  0  0999 V2000
   57.6242  161.3737    0.3685 C   0  0  0  0  0  0  0  0  0  0  0  0
   58.1765  161.5482   -0.9003 C   0  0  0  0  0  0  0  0  0  0  0  0
   56.6223  159.2970   -0.3530 C   0  0  0  0  0  0  0  0  0  0  0  0
   57.1745  159.4715   -1.6220 C   0  0  0  0  0  0  0  0  0  0  0  0
   56.8471  160.2481    0.6422 C   0  0  0  0  0  0  0  0  0  0  0  0
   57.9517  160.5971   -1.8956 C   0  0  0  0  0  0  0  0  0  0  0  0
   55.8030  157.6686   -2.7395 C   0  0  0  0  0  0  0  0  0  0  0  0
   54.1849  156.1386   -6.2551 C   0  0  0  0  0  0  0  0  0  0  0  0
   53.6711  156.5085   -4.8521 C   0  0  2  0  0  0  0  0  0  0  0  0
   54.9340  155.8609   -4.2416 C   0  0  1  0  0  0  0  0  0  0  0  0
   55.2223  155.1910   -5.6114 C   0  0  1  0  0  0  0  0  0  0  0  0
   54.9049  151.7984   -7.0169 C   0  0  0  0  0  0  0  0  0  0  0  0
   55.2474  153.2723   -6.9734 C   0  0  0  0  0  0  0  0  0  0  0  0
   52.5194  155.6616   -4.5407 N   0  0  0  0  0  0  0  0  0  0  0  0
   56.9272  158.4886   -2.6085 N   0  0  0  0  0  0  0  0  0  0  0  0
   55.9511  156.8357   -3.8451 N   0  0  0  0  0  0  0  0  0  0  0  0
   54.8153  157.6575   -2.0088 O   0  0  0  0  0  0  0  0  0  0  0  0
   54.9122  153.7860   -5.6980 O   0  0  0  0  0  0  0  0  0  0  0  0
   56.1660  160.0337    2.2082 Cl  0  0  0  0  0  0  0  0  0  0  0  0
   58.6547  160.8530   -3.4528 Cl  0  0  0  0  0  0  0  0  0  0  0  0
   57.8077  162.1229    1.1344 H   0  0  0  0  0  0  0  0  0  0  0  0
   58.7797  162.4309   -1.0972 H   0  0  0  0  0  0  0  0  0  0  0  0
   56.0163  158.4184   -0.1411 H   0  0  0  0  0  0  0  0  0  0  0  0
   53.4675  155.6183   -6.9176 H   0  0  0  0  0  0  0  0  0  0  0  0
   54.6125  156.9777   -6.8302 H   0  0  0  0  0  0  0  0  0  0  0  0
   53.5301  157.5787   -4.6673 H   0  0  0  0  0  0  0  0  0  0  0  0
   54.7626  155.1374   -3.4334 H   0  0  0  0  0  0  0  0  0  0  0  0
   56.2434  155.3683   -5.9889 H   0  0  0  0  0  0  0  0  0  0  0  0
   55.4664  151.2448   -6.2592 H   0  0  0  0  0  0  0  0  0  0  0  0
   53.8343  151.6456   -6.8455 H   0  0  0  0  0  0  0  0  0  0  0  0
   55.1326  151.3783   -8.0022 H   0  0  0  0  0  0  0  0  0  0  0  0
   54.6826  153.8201   -7.7336 H   0  0  0  0  0  0  0  0  0  0  0  0
   56.3175  153.4231   -7.1440 H   0  0  0  0  0  0  0  0  0  0  0  0
   51.7987  155.5727   -5.2264 H   0  0  0  0  0  0  0  0  0  0  0  0
   52.3899  155.3689   -3.5946 H   0  0  0  0  0  0  0  0  0  0  0  0
   57.6586  158.3681   -3.3048 H   0  0  0  0  0  0  0  0  0  0  0  0
   56.7944  156.9070   -4.3957 H   0  0  0  0  0  0  0  0  0  0  0  0
  1  2  2  0  0  0  0
  1  5  1  0  0  0  0
  2  6  1  0  0  0  0
  3  4  1  0  0  0  0
  3  5  2  0  0  0  0
  4  6  2  0  0  0  0
  4 15  1  0  0  0  0
  5 19  1  0  0  0  0
  6 20  1  0  0  0  0
  7 15  1  0  0  0  0
  7 16  1  0  0  0  0
  7 17  2  0  0  0  0
  8  9  1  0  0  0  0
  8 11  1  0  0  0  0
  9 10  1  0  0  0  0
  9 14  1  0  0  0  0
 10 11  1  0  0  0  0
 10 16  1  0  0  0  0
 11 18  1  0  0  0  0
 12 13  1  0  0  0  0
 13 18  1  0  0  0  0
  1 21  1  0  0  0  0
  2 22  1  0  0  0  0
  3 23  1  0  0  0  0
  8 24  1  0  0  0  0
  8 25  1  0  0  0  0
  9 26  1  0  0  0  0
 10 27  1  0  0  0  0
 11 28  1  0  0  0  0
 12 29  1  0  0  0  0
 12 30  1  0  0  0  0
 12 31  1  0  0  0  0
 13 32  1  0  0  0  0
 13 33  1  0  0  0  0
 14 34  1  0  0  0  0
 14 35  1  0  0  0  0
 15 36  1  0  0  0  0
 16 37  1  0  0  0  0
M  END
> <FRED Chemgauss4 score>
-7.009221

$$$$
C87968908	P137595317
  -OEChem-05122015073D

 47 48  0     1  0  0  0  0  0999 V2000
   54.6255  157.8158   -2.5703 C   0  0  0  0  0  0  0  0  0  0  0  0
   53.9750  156.0938   -3.5142 C   0  0  0  0  0  0  0  0  0  0  0  0
   56.1532  159.5540   -3.4855 C   0  0  0  0  0  0  0  0  0  0  0  0
   56.4847  158.6507   -1.1419 C   0  0  0  0  0  0  0  0  0  0  0  0
   57.0417  160.7506   -3.1467 C   0  0  0  0  0  0  0  0  0  0  0  0
   57.3725  159.8494   -0.8087 C   0  0  0  0  0  0  0  0  0  0  0  0
   55.4571  158.9975   -2.2321 C   0  0  0  0  0  0  0  0  0  0  0  0
   58.0669  160.4058   -2.0585 C   0  0  0  0  0  0  0  0  0  0  0  0
   54.4715  153.6845   -6.5352 C   0  0  0  0  0  0  0  0  0  0  0  0
   59.6282  162.1464   -2.9637 C   0  0  0  0  0  0  0  0  0  0  0  0
   59.9560  161.2525   -0.6442 C   0  0  0  0  0  0  0  0  0  0  0  0
   58.0031  162.7415   -1.1494 C   0  0  0  0  0  0  0  0  0  0  0  0
   53.7322  154.8979   -4.3323 C   0  0  2  0  0  0  0  0  0  0  0  0
   54.3379  155.0026   -5.7753 C   0  0  2  0  0  0  0  0  0  0  0  0
   58.9094  161.6305   -1.7057 C   0  0  0  0  0  0  0  0  0  0  0  0
   54.9600  156.9539   -3.5739 N   0  0  0  0  0  0  0  0  0  0  0  0
   53.5005  157.5287   -1.9089 N   0  0  0  0  0  0  0  0  0  0  0  0
   52.2871  154.5604   -4.4180 N   0  0  0  0  0  0  0  0  0  0  0  0
   53.0590  156.3629   -2.5473 O   0  0  0  0  0  0  0  0  0  0  0  0
   53.4868  155.8537   -6.5508 O   0  0  0  0  0  0  0  0  0  0  0  0
   55.4051  159.8568   -4.2289 H   0  0  0  0  0  0  0  0  0  0  0  0
   56.7622  158.7714   -3.9573 H   0  0  0  0  0  0  0  0  0  0  0  0
   57.1144  157.8129   -1.4703 H   0  0  0  0  0  0  0  0  0  0  0  0
   55.9712  158.3157   -0.2320 H   0  0  0  0  0  0  0  0  0  0  0  0
   57.5587  161.0841   -4.0543 H   0  0  0  0  0  0  0  0  0  0  0  0
   56.4113  161.5859   -2.8156 H   0  0  0  0  0  0  0  0  0  0  0  0
   56.7609  160.6314   -0.3407 H   0  0  0  0  0  0  0  0  0  0  0  0
   58.1225  159.5472   -0.0679 H   0  0  0  0  0  0  0  0  0  0  0  0
   54.7822  159.7693   -1.8392 H   0  0  0  0  0  0  0  0  0  0  0  0
   58.7419  159.6338   -2.4515 H   0  0  0  0  0  0  0  0  0  0  0  0
   53.5173  153.1547   -6.6052 H   0  0  0  0  0  0  0  0  0  0  0  0
   55.2050  153.0278   -6.0547 H   0  0  0  0  0  0  0  0  0  0  0  0
   54.8340  153.8675   -7.5530 H   0  0  0  0  0  0  0  0  0  0  0  0
   60.2419  163.0267   -2.7418 H   0  0  0  0  0  0  0  0  0  0  0  0
   58.9086  162.4290   -3.7403 H   0  0  0  0  0  0  0  0  0  0  0  0
   60.2869  161.3780   -3.3835 H   0  0  0  0  0  0  0  0  0  0  0  0
   60.5734  162.1169   -0.3749 H   0  0  0  0  0  0  0  0  0  0  0  0
   59.4751  160.8885    0.2706 H   0  0  0  0  0  0  0  0  0  0  0  0
   60.6259  160.4640   -1.0051 H   0  0  0  0  0  0  0  0  0  0  0  0
   58.5865  163.6318   -0.8888 H   0  0  0  0  0  0  0  0  0  0  0  0
   57.4748  162.4134   -0.2472 H   0  0  0  0  0  0  0  0  0  0  0  0
   57.2497  163.0410   -1.8867 H   0  0  0  0  0  0  0  0  0  0  0  0
   54.2116  154.0025   -3.8701 H   0  0  0  0  0  0  0  0  0  0  0  0
   55.3217  155.4842   -5.7389 H   0  0  0  0  0  0  0  0  0  0  0  0
   51.7484  154.7099   -3.6071 H   0  0  0  0  0  0  0  0  0  0  0  0
   52.0024  154.0263   -5.1952 H   0  0  0  0  0  0  0  0  0  0  0  0
   53.9268  155.9687   -7.4052 H   0  0  0  0  0  0  0  0  0  0  0  0
  1  7  1  0  0  0  0
  1 16  1  0  0  0  0
  1 17  2  0  0  0  0
  2 13  1  0  0  0  0
  2 16  2  0  0  0  0
  2 19  1  0  0  0  0
  3  5  1  0  0  0  0
  3  7  1  0  0  0  0
  4  6  1  0  0  0  0
  4  7  1  0  0  0  0
  5  8  1  0  0  0  0
  6  8  1  0  0  0  0
  8 15  1  0  0  0  0
  9 14  1  0  0  0  0
 10 15  1  0  0  0  0
 11 15  1  0  0  0  0
 12 15  1  0  0  0  0
 13 14  1  0  0  0  0
 13 18  1  0  0  0  0
 14 20  1  0  0  0  0
 17 19  1  0  0  0  0
  3 21  1  0  0  0  0
  3 22  1  0  0  0  0
  4 23  1  0  0  0  0
  4 24  1  0  0  0  0
  5 25  1  0  0  0  0
  5 26  1  0  0  0  0
  6 27  1  0  0  0  0
  6 28  1  0  0  0  0
  7 29  1  0  0  0  0
  8 30  1  0  0  0  0
  9 31  1  0  0  0  0
  9 32  1  0  0  0  0
  9 33  1  0  0  0  0
 10 34  1  0  0  0  0
 10 35  1  0  0  0  0
 10 36  1  0  0  0  0
 11 37  1  0  0  0  0
 11 38  1  0  0  0  0
 11 39  1  0  0  0  0
 12 40  1  0  0  0  0
 12 41  1  0  0  0  0
 12 42  1  0  0  0  0
 13 43  1  0  0  0  0
 14 44  1  0  0  0  0
 18 45  1  0  0  0  0
 18 46  1  0  0  0  0
 20 47  1  0  0  0  0
M  END
> <FRED Chemgauss4 score>
-7.002663

$$$$
C08653312	P88384198
  -OEChem-05122015073D

 27 28  0     1  0  0  0  0  0999 V2000
   54.7835  154.1780   -6.8121 C   0  0  0  0  0  0  0  0  0  0  0  0
   56.2954  155.6857   -6.2936 C   0  0  0  0  0  0  0  0  0  0  0  0
   56.8655  154.5936   -6.9048 C   0  0  0  0  0  0  0  0  0  0  0  0
   57.0273  156.8255   -5.8430 C   0  0  0  0  0  0  0  0  0  0  0  0
   58.9464  155.5357   -6.7414 C   0  0  0  0  0  0  0  0  0  0  0  0
   53.9162  156.2403   -5.6874 C   0  0  0  0  0  0  0  0  0  0  0  0
   53.1624  154.9440   -3.6648 C   0  0  0  0  0  0  0  0  0  0  0  0
   53.8821  156.1953   -4.1585 C   0  0  2  0  0  0  0  0  0  0  0  0
   55.9196  153.6562   -7.2263 N   0  0  0  0  0  0  0  0  0  0  0  0
   58.2480  154.4995   -7.1459 N   0  0  0  0  0  0  0  0  0  0  0  0
   54.9604  155.4102   -6.2383 N   0  0  0  0  0  0  0  0  0  0  0  0
   58.3850  156.6624   -6.1146 N   0  0  0  0  0  0  0  0  0  0  0  0
   60.3069  155.5874   -6.9085 N   0  0  0  0  0  0  0  0  0  0  0  0
   56.5496  157.8136   -5.2959 O   0  0  0  0  0  0  0  0  0  0  0  0
   53.1826  154.9328   -2.2415 O   0  0  0  0  0  0  0  0  0  0  0  0
   53.1705  157.3412   -3.6871 O   0  0  0  0  0  0  0  0  0  0  0  0
   53.8095  153.7160   -6.8992 H   0  0  0  0  0  0  0  0  0  0  0  0
   54.0989  157.2588   -6.0508 H   0  0  0  0  0  0  0  0  0  0  0  0
   52.9665  155.8985   -6.1164 H   0  0  0  0  0  0  0  0  0  0  0  0
   53.6627  154.0354   -4.0156 H   0  0  0  0  0  0  0  0  0  0  0  0
   52.1172  154.9356   -3.9894 H   0  0  0  0  0  0  0  0  0  0  0  0
   54.8926  156.2437   -3.7360 H   0  0  0  0  0  0  0  0  0  0  0  0
   59.0139  157.4115   -5.8399 H   0  0  0  0  0  0  0  0  0  0  0  0
   60.7561  154.8172   -7.3460 H   0  0  0  0  0  0  0  0  0  0  0  0
   60.7898  156.3930   -6.5856 H   0  0  0  0  0  0  0  0  0  0  0  0
   52.7186  154.1274   -1.9633 H   0  0  0  0  0  0  0  0  0  0  0  0
   53.6568  158.1151   -4.0080 H   0  0  0  0  0  0  0  0  0  0  0  0
  1  9  2  0  0  0  0
  1 11  1  0  0  0  0
  2  3  2  0  0  0  0
  2  4  1  0  0  0  0
  2 11  1  0  0  0  0
  3  9  1  0  0  0  0
  3 10  1  0  0  0  0
  4 12  1  0  0  0  0
  4 14  2  0  0  0  0
  5 10  2  0  0  0  0
  5 12  1  0  0  0  0
  5 13  1  0  0  0  0
  6  8  1  0  0  0  0
  6 11  1  0  0  0  0
  7  8  1  0  0  0  0
  7 15  1  0  0  0  0
  8 16  1  0  0  0  0
  1 17  1  0  0  0  0
  6 18  1  0  0  0  0
  6 19  1  0  0  0  0
  7 20  1  0  0  0  0
  7 21  1  0  0  0  0
  8 22  1  0  0  0  0
 12 23  1  0  0  0  0
 13 24  1  0  0  0  0
 13 25  1  0  0  0  0
 15 26  1  0  0  0  0
 16 27  1  0  0  0  0
M  END
> <FRED Chemgauss4 score>
-6.999586

$$$$
C37750230	P56129578
  -OEChem-05122015073D

 28 28  0     0  0  0  0  0  0999 V2000
   55.1893  155.3900   -2.8134 C   0  0  0  0  0  0  0  0  0  0  0  0
   54.7188  155.5347   -4.0956 C   0  0  0  0  0  0  0  0  0  0  0  0
   53.3253  155.6682   -3.9461 C   0  0  0  0  0  0  0  0  0  0  0  0
   60.3884  157.6449   -7.9926 C   0  0  0  0  0  0  0  0  0  0  0  0
   57.7850  157.1331   -4.7753 C   0  0  0  0  0  0  0  0  0  0  0  0
   58.8534  157.7222   -5.6762 C   0  0  0  0  0  0  0  0  0  0  0  0
   52.9361  155.6130   -2.6697 N   0  0  0  0  0  0  0  0  0  0  0  0
   54.0919  155.4431   -2.0053 N   0  0  0  0  0  0  0  0  0  0  0  0
   52.4999  155.8338   -5.0130 N   0  0  0  0  0  0  0  0  0  0  0  0
   56.5088  157.0479   -5.4313 N   0  0  0  0  0  0  0  0  0  0  0  0
   56.6522  154.4715   -5.4890 O   0  0  0  0  0  0  0  0  0  0  0  0
   54.7491  155.5965   -6.6876 O   0  0  0  0  0  0  0  0  0  0  0  0
   59.7193  155.4763   -6.6956 O   0  0  0  0  0  0  0  0  0  0  0  0
   57.9289  156.7627   -7.9250 O   0  0  0  0  0  0  0  0  0  0  0  0
   55.6817  155.5457   -5.5780 S   0  0  0  0  0  0  0  0  0  0  0  0
   59.1350  156.7387   -7.1153 S   0  0  0  0  0  0  0  0  0  0  0  0
   56.1830  155.2566   -2.4097 H   0  0  0  0  0  0  0  0  0  0  0  0
   60.6279  157.1025   -8.9087 H   0  0  0  0  0  0  0  0  0  0  0  0
   59.9968  158.6360   -8.2263 H   0  0  0  0  0  0  0  0  0  0  0  0
   61.2687  157.7222   -7.3528 H   0  0  0  0  0  0  0  0  0  0  0  0
   58.0522  156.1259   -4.4406 H   0  0  0  0  0  0  0  0  0  0  0  0
   57.6471  157.7646   -3.8924 H   0  0  0  0  0  0  0  0  0  0  0  0
   59.8106  157.7734   -5.1487 H   0  0  0  0  0  0  0  0  0  0  0  0
   58.5862  158.7256   -6.0212 H   0  0  0  0  0  0  0  0  0  0  0  0
   54.0591  155.3708   -0.9961 H   0  0  0  0  0  0  0  0  0  0  0  0
   52.8638  155.9156   -5.9688 H   0  0  0  0  0  0  0  0  0  0  0  0
   51.4908  155.9778   -4.8965 H   0  0  0  0  0  0  0  0  0  0  0  0
   55.9188  157.9065   -5.4535 H   0  0  0  0  0  0  0  0  0  0  0  0
  1  2  2  0  0  0  0
  1  8  1  0  0  0  0
  2  3  1  0  0  0  0
  2 15  1  0  0  0  0
  3  7  2  0  0  0  0
  3  9  1  0  0  0  0
  4 16  1  0  0  0  0
  5  6  1  0  0  0  0
  5 10  1  0  0  0  0
  6 16  1  0  0  0  0
  7  8  1  0  0  0  0
 10 15  1  0  0  0  0
 11 15  2  0  0  0  0
 12 15  2  0  0  0  0
 13 16  2  0  0  0  0
 14 16  2  0  0  0  0
  1 17  1  0  0  0  0
  4 18  1  0  0  0  0
  4 19  1  0  0  0  0
  4 20  1  0  0  0  0
  5 21  1  0  0  0  0
  5 22  1  0  0  0  0
  6 23  1  0  0  0  0
  6 24  1  0  0  0  0
  8 25  1  0  0  0  0
  9 26  1  0  0  0  0
  9 27  1  0  0  0  0
 10 28  1  0  0  0  0
M  END
> <FRED Chemgauss4 score>
-6.996267

$$$$
C63154913	P96986964
  -OEChem-05122015073D

 29 29  0     1  0  0  0  0  0999 V2000
   59.8139  154.6192   -7.0597 C   0  0  0  0  0  0  0  0  0  0  0  0
   58.7561  155.5688   -6.5562 C   0  0  0  0  0  0  0  0  0  0  0  0
   59.0055  153.6868   -7.9369 C   0  0  0  0  0  0  0  0  0  0  0  0
   57.5788  154.6306   -6.3539 C   0  0  1  0  0  0  0  0  0  0  0  0
   56.2320  155.3214   -6.4439 C   0  0  0  0  0  0  0  0  0  0  0  0
   53.9320  156.9007   -4.0123 C   0  0  0  0  0  0  0  0  0  0  0  0
   53.6591  156.7706   -5.5014 C   0  0  0  0  0  0  0  0  0  0  0  0
   53.9697  158.2736   -3.5854 N   0  0  0  0  0  0  0  0  0  0  0  0
   53.6005  155.3619   -5.9310 N   0  0  0  0  0  0  0  0  0  0  0  0
   54.8042  153.1279   -6.4356 O   0  0  0  0  0  0  0  0  0  0  0  0
   55.2363  154.3141   -4.2532 O   0  0  0  0  0  0  0  0  0  0  0  0
   57.6836  153.6295   -7.3804 O   0  0  0  0  0  0  0  0  0  0  0  0
   54.9655  154.3620   -5.6822 S   0  0  0  0  0  0  0  0  0  0  0  0
   60.6287  155.1116   -7.5969 H   0  0  0  0  0  0  0  0  0  0  0  0
   60.2449  154.0626   -6.2191 H   0  0  0  0  0  0  0  0  0  0  0  0
   59.0436  156.0940   -5.6412 H   0  0  0  0  0  0  0  0  0  0  0  0
   58.5362  156.3167   -7.3278 H   0  0  0  0  0  0  0  0  0  0  0  0
   58.9203  154.0771   -8.9566 H   0  0  0  0  0  0  0  0  0  0  0  0
   59.4303  152.6801   -7.9829 H   0  0  0  0  0  0  0  0  0  0  0  0
   57.6660  154.1154   -5.3898 H   0  0  0  0  0  0  0  0  0  0  0  0
   55.9429  155.4723   -7.4862 H   0  0  0  0  0  0  0  0  0  0  0  0
   56.2576  156.2878   -5.9362 H   0  0  0  0  0  0  0  0  0  0  0  0
   54.8906  156.4473   -3.7409 H   0  0  0  0  0  0  0  0  0  0  0  0
   53.1393  156.4083   -3.4405 H   0  0  0  0  0  0  0  0  0  0  0  0
   52.6942  157.2229   -5.7507 H   0  0  0  0  0  0  0  0  0  0  0  0
   54.4367  157.2632   -6.0939 H   0  0  0  0  0  0  0  0  0  0  0  0
   54.4070  158.9606   -4.1786 H   0  0  0  0  0  0  0  0  0  0  0  0
   53.7484  158.4964   -2.6280 H   0  0  0  0  0  0  0  0  0  0  0  0
   53.0685  155.2119   -6.7982 H   0  0  0  0  0  0  0  0  0  0  0  0
  1  2  1  0  0  0  0
  1  3  1  0  0  0  0
  2  4  1  0  0  0  0
  3 12  1  0  0  0  0
  4  5  1  0  0  0  0
  4 12  1  0  0  0  0
  5 13  1  0  0  0  0
  6  7  1  0  0  0  0
  6  8  1  0  0  0  0
  7  9  1  0  0  0  0
  9 13  1  0  0  0  0
 10 13  2  0  0  0  0
 11 13  2  0  0  0  0
  1 14  1  0  0  0  0
  1 15  1  0  0  0  0
  2 16  1  0  0  0  0
  2 17  1  0  0  0  0
  3 18  1  0  0  0  0
  3 19  1  0  0  0  0
  4 20  1  0  0  0  0
  5 21  1  0  0  0  0
  5 22  1  0  0  0  0
  6 23  1  0  0  0  0
  6 24  1  0  0  0  0
  7 25  1  0  0  0  0
  7 26  1  0  0  0  0
  8 27  1  0  0  0  0
  8 28  1  0  0  0  0
  9 29  1  0  0  0  0
M  END
> <FRED Chemgauss4 score>
-6.993809

$$$$
C79970268	P124969563
  -OEChem-05122015073D

 43 44  0     1  0  0  0  0  0999 V2000
   55.5049  156.6777   -4.5350 C   0  0  0  0  0  0  0  0  0  0  0  0
   54.3641  156.6369   -3.7611 C   0  0  0  0  0  0  0  0  0  0  0  0
   55.4213  158.2429   -2.7059 C   0  0  0  0  0  0  0  0  0  0  0  0
   56.9863  160.1013    0.2283 C   0  0  0  0  0  0  0  0  0  0  0  0
   58.0656  160.8978   -0.5137 C   0  0  0  0  0  0  0  0  0  0  0  0
   56.5748  161.4328   -2.5611 C   0  0  0  0  0  0  0  0  0  0  0  0
   56.4094  158.9010   -0.5278 C   0  0  0  0  0  0  0  0  0  0  0  0
   55.3718  160.6463   -2.0359 C   0  0  0  0  0  0  0  0  0  0  0  0
   57.9509  160.9780   -2.0443 C   0  0  1  0  0  0  0  0  0  0  0  0
   58.9772  161.9110   -4.1321 C   0  0  0  0  0  0  0  0  0  0  0  0
   60.4199  161.3964   -2.1471 C   0  0  0  0  0  0  0  0  0  0  0  0
   58.8229  163.3276   -2.0691 C   0  0  0  0  0  0  0  0  0  0  0  0
   53.2160  155.7313   -3.9645 C   0  0  0  0  0  0  0  0  0  0  0  0
   59.0417  161.9023   -2.5976 C   0  0  0  0  0  0  0  0  0  0  0  0
   54.3146  157.5334   -2.7115 N   0  0  0  0  0  0  0  0  0  0  0  0
   55.7084  159.2466   -1.7763 N   0  0  0  0  0  0  0  0  0  0  0  0
   52.3787  156.1252   -5.0765 N   0  0  0  0  0  0  0  0  0  0  0  0
   56.5647  157.8851   -3.9346 S   0  0  0  0  0  0  0  0  0  0  0  0
   55.7595  156.0799   -5.3989 H   0  0  0  0  0  0  0  0  0  0  0  0
   57.3809  159.7787    1.2084 H   0  0  0  0  0  0  0  0  0  0  0  0
   56.1591  160.7966    0.4551 H   0  0  0  0  0  0  0  0  0  0  0  0
   58.0982  161.9208   -0.0936 H   0  0  0  0  0  0  0  0  0  0  0  0
   59.0417  160.4502   -0.2488 H   0  0  0  0  0  0  0  0  0  0  0  0
   56.5485  161.3422   -3.6627 H   0  0  0  0  0  0  0  0  0  0  0  0
   56.4366  162.5129   -2.3704 H   0  0  0  0  0  0  0  0  0  0  0  0
   57.2513  158.2138   -0.7680 H   0  0  0  0  0  0  0  0  0  0  0  0
   55.7542  158.2883    0.1305 H   0  0  0  0  0  0  0  0  0  0  0  0
   55.0251  161.1078   -1.1193 H   0  0  0  0  0  0  0  0  0  0  0  0
   54.5784  160.6960   -2.7731 H   0  0  0  0  0  0  0  0  0  0  0  0
   58.1678  159.9606   -2.4657 H   0  0  0  0  0  0  0  0  0  0  0  0
   59.7467  162.5646   -4.5578 H   0  0  0  0  0  0  0  0  0  0  0  0
   58.0034  162.2687   -4.4852 H   0  0  0  0  0  0  0  0  0  0  0  0
   59.1308  160.9056   -4.5400 H   0  0  0  0  0  0  0  0  0  0  0  0
   61.2214  162.0391   -2.5286 H   0  0  0  0  0  0  0  0  0  0  0  0
   60.4974  161.3802   -1.0543 H   0  0  0  0  0  0  0  0  0  0  0  0
   60.6071  160.3795   -2.5097 H   0  0  0  0  0  0  0  0  0  0  0  0
   59.5895  164.0124   -2.4489 H   0  0  0  0  0  0  0  0  0  0  0  0
   58.8639  163.3554   -0.9745 H   0  0  0  0  0  0  0  0  0  0  0  0
   57.8459  163.7178   -2.3762 H   0  0  0  0  0  0  0  0  0  0  0  0
   53.5404  154.6941   -4.1616 H   0  0  0  0  0  0  0  0  0  0  0  0
   52.5604  155.6818   -3.0772 H   0  0  0  0  0  0  0  0  0  0  0  0
   51.4099  155.8640   -5.0676 H   0  0  0  0  0  0  0  0  0  0  0  0
   52.8161  156.4646   -5.9135 H   0  0  0  0  0  0  0  0  0  0  0  0
  1  2  2  0  0  0  0
  1 18  1  0  0  0  0
  2 13  1  0  0  0  0
  2 15  1  0  0  0  0
  3 15  2  0  0  0  0
  3 16  1  0  0  0  0
  3 18  1  0  0  0  0
  4  5  1  0  0  0  0
  4  7  1  0  0  0  0
  5  9  1  0  0  0  0
  6  8  1  0  0  0  0
  6  9  1  0  0  0  0
  7 16  1  0  0  0  0
  8 16  1  0  0  0  0
  9 14  1  0  0  0  0
 10 14  1  0  0  0  0
 11 14  1  0  0  0  0
 12 14  1  0  0  0  0
 13 17  1  0  0  0  0
  1 19  1  0  0  0  0
  4 20  1  0  0  0  0
  4 21  1  0  0  0  0
  5 22  1  0  0  0  0
  5 23  1  0  0  0  0
  6 24  1  0  0  0  0
  6 25  1  0  0  0  0
  7 26  1  0  0  0  0
  7 27  1  0  0  0  0
  8 28  1  0  0  0  0
  8 29  1  0  0  0  0
  9 30  1  0  0  0  0
 10 31  1  0  0  0  0
 10 32  1  0  0  0  0
 10 33  1  0  0  0  0
 11 34  1  0  0  0  0
 11 35  1  0  0  0  0
 11 36  1  0  0  0  0
 12 37  1  0  0  0  0
 12 38  1  0  0  0  0
 12 39  1  0  0  0  0
 13 40  1  0  0  0  0
 13 41  1  0  0  0  0
 17 42  1  0  0  0  0
 17 43  1  0  0  0  0
M  END
> <FRED Chemgauss4 score>
-6.982599

$$$$
C89855498	P140455637
  -OEChem-05122015073D

 37 39  0     0  0  0  0  0  0999 V2000
   56.5276  153.5648   -7.0681 C   0  0  0  0  0  0  0  0  0  0  0  0
   55.1876  153.1826   -7.0065 C   0  0  0  0  0  0  0  0  0  0  0  0
   55.9694  155.6856   -6.0545 C   0  0  0  0  0  0  0  0  0  0  0  0
   54.6294  155.3035   -5.9929 C   0  0  0  0  0  0  0  0  0  0  0  0
   56.9186  154.8163   -6.5920 C   0  0  0  0  0  0  0  0  0  0  0  0
   54.2384  154.0519   -6.4689 C   0  0  0  0  0  0  0  0  0  0  0  0
   52.6967  160.5567   -7.1156 C   0  0  0  0  0  0  0  0  0  0  0  0
   52.2679  159.3367   -6.7684 C   0  0  0  0  0  0  0  0  0  0  0  0
   59.3570  154.4440   -7.1677 C   0  0  0  0  0  0  0  0  0  0  0  0
   51.0030  159.6150   -8.7141 C   0  0  0  0  0  0  0  0  0  0  0  0
   53.6723  156.2449   -5.4242 C   0  0  0  0  0  0  0  0  0  0  0  0
   60.6252  155.2310   -6.9267 C   0  0  0  0  0  0  0  0  0  0  0  0
   60.1262  156.6487   -6.7316 C   0  0  0  0  0  0  0  0  0  0  0  0
   58.7645  156.4574   -6.0971 C   0  0  0  0  0  0  0  0  0  0  0  0
   52.6860  158.5408   -5.5845 C   0  0  0  0  0  0  0  0  0  0  0  0
   51.3406  158.8144   -7.6385 N   0  0  0  0  0  0  0  0  0  0  0  0
   58.2890  155.2065   -6.6557 N   0  0  0  0  0  0  0  0  0  0  0  0
   53.5703  157.4940   -6.0439 N   0  0  0  0  0  0  0  0  0  0  0  0
   59.3603  153.3286   -7.6680 O   0  0  0  0  0  0  0  0  0  0  0  0
   50.2143  159.3834   -9.6163 O   0  0  0  0  0  0  0  0  0  0  0  0
   53.0062  155.9349   -4.4229 O   0  0  0  0  0  0  0  0  0  0  0  0
   51.9411  161.1154   -8.5786 S   0  0  0  0  0  0  0  0  0  0  0  0
   52.5899  153.5405   -6.4116 Cl  0  0  0  0  0  0  0  0  0  0  0  0
   57.2587  152.8790   -7.4888 H   0  0  0  0  0  0  0  0  0  0  0  0
   54.9001  152.2034   -7.3811 H   0  0  0  0  0  0  0  0  0  0  0  0
   56.2756  156.6625   -5.6855 H   0  0  0  0  0  0  0  0  0  0  0  0
   53.4221  161.1471   -6.5739 H   0  0  0  0  0  0  0  0  0  0  0  0
   61.1109  154.8463   -6.0244 H   0  0  0  0  0  0  0  0  0  0  0  0
   61.3031  155.1507   -7.7799 H   0  0  0  0  0  0  0  0  0  0  0  0
   60.7974  157.2603   -6.1224 H   0  0  0  0  0  0  0  0  0  0  0  0
   60.0159  157.1373   -7.7078 H   0  0  0  0  0  0  0  0  0  0  0  0
   58.8407  156.3416   -5.0103 H   0  0  0  0  0  0  0  0  0  0  0  0
   58.0777  157.2753   -6.3355 H   0  0  0  0  0  0  0  0  0  0  0  0
   51.8012  158.1103   -5.1092 H   0  0  0  0  0  0  0  0  0  0  0  0
   53.2035  159.1929   -4.8765 H   0  0  0  0  0  0  0  0  0  0  0  0
   50.9292  157.8977   -7.4999 H   0  0  0  0  0  0  0  0  0  0  0  0
   54.1844  157.7164   -6.8205 H   0  0  0  0  0  0  0  0  0  0  0  0
  1  2  1  0  0  0  0
  1  5  2  0  0  0  0
  2  6  2  0  0  0  0
  3  4  2  0  0  0  0
  3  5  1  0  0  0  0
  4  6  1  0  0  0  0
  4 11  1  0  0  0  0
  5 17  1  0  0  0  0
  6 23  1  0  0  0  0
  7  8  2  0  0  0  0
  7 22  1  0  0  0  0
  8 15  1  0  0  0  0
  8 16  1  0  0  0  0
  9 12  1  0  0  0  0
  9 17  1  0  0  0  0
  9 19  2  0  0  0  0
 10 16  1  0  0  0  0
 10 20  2  0  0  0  0
 10 22  1  0  0  0  0
 11 18  1  0  0  0  0
 11 21  2  0  0  0  0
 12 13  1  0  0  0  0
 13 14  1  0  0  0  0
 14 17  1  0  0  0  0
 15 18  1  0  0  0  0
  1 24  1  0  0  0  0
  2 25  1  0  0  0  0
  3 26  1  0  0  0  0
  7 27  1  0  0  0  0
 12 28  1  0  0  0  0
 12 29  1  0  0  0  0
 13 30  1  0  0  0  0
 13 31  1  0  0  0  0
 14 32  1  0  0  0  0
 14 33  1  0  0  0  0
 15 34  1  0  0  0  0
 15 35  1  0  0  0  0
 16 36  1  0  0  0  0
 18 37  1  0  0  0  0
M  END
> <FRED Chemgauss4 score>
-6.979992

$$$$
C61843867	P94755243
  -OEChem-05122015073D

 20 20  0     0  0  0  0  0  0999 V2000
   55.3703  158.0970   -2.5622 C   0  0  0  0  0  0  0  0  0  0  0  0
   54.3063  156.5824   -3.5973 C   0  0  0  0  0  0  0  0  0  0  0  0
   56.9909  159.6393    0.3399 C   0  0  0  0  0  0  0  0  0  0  0  0
   55.7225  159.1791   -1.5842 C   0  0  0  0  0  0  0  0  0  0  0  0
   53.2552  155.6513   -4.0014 C   0  0  0  0  0  0  0  0  0  0  0  0
   56.1956  157.6562   -3.5318 N   0  5  0  0  0  0  0  0  0  0  0  0
   54.1976  157.4494   -2.5818 N   0  0  0  0  0  0  0  0  0  0  0  0
   55.5068  156.6764   -4.2023 N   0  0  0  0  0  0  0  0  0  0  0  0
   52.5309  156.0393   -5.2578 N   0  3  0  0  0  0  0  0  0  0  0  0
   56.6213  158.6548   -0.6161 O   0  0  0  0  0  0  0  0  0  0  0  0
   57.6804  159.2022    1.0663 H   0  0  0  0  0  0  0  0  0  0  0  0
   56.0966  160.0095    0.8475 H   0  0  0  0  0  0  0  0  0  0  0  0
   57.4843  160.4671   -0.1749 H   0  0  0  0  0  0  0  0  0  0  0  0
   56.1977  160.0258   -2.0911 H   0  0  0  0  0  0  0  0  0  0  0  0
   54.8254  159.5508   -1.0774 H   0  0  0  0  0  0  0  0  0  0  0  0
   53.6334  154.6259   -4.1959 H   0  0  0  0  0  0  0  0  0  0  0  0
   52.4583  155.5371   -3.2370 H   0  0  0  0  0  0  0  0  0  0  0  0
   53.1915  156.4038   -5.9433 H   0  0  0  0  0  0  0  0  0  0  0  0
   51.8374  156.7580   -5.0526 H   0  0  0  0  0  0  0  0  0  0  0  0
   52.0583  155.2272   -5.6534 H   0  0  0  0  0  0  0  0  0  0  0  0
  1  4  1  0  0  0  0
  1  6  1  0  0  0  0
  1  7  2  0  0  0  0
  2  5  1  0  0  0  0
  2  7  1  0  0  0  0
  2  8  2  0  0  0  0
  3 10  1  0  0  0  0
  4 10  1  0  0  0  0
  5  9  1  0  0  0  0
  6  8  1  0  0  0  0
  3 11  1  0  0  0  0
  3 12  1  0  0  0  0
  3 13  1  0  0  0  0
  4 14  1  0  0  0  0
  4 15  1  0  0  0  0
  5 16  1  0  0  0  0
  5 17  1  0  0  0  0
  9 18  1  0  0  0  0
  9 19  1  0  0  0  0
  9 20  1  0  0  0  0
M  CHG  2   6  -1   9   1
M  END
> <FRED Chemgauss4 score>
-6.979607

$$$$
C85802150	P134355349
  -OEChem-05122015073D

 32 33  0     1  0  0  0  0  0999 V2000
   55.1035  158.1265   -2.4663 C   0  0  0  0  0  0  0  0  0  0  0  0
   53.9522  156.7090   -3.5446 C   0  0  0  0  0  0  0  0  0  0  0  0
   57.0620  161.3858   -0.6238 C   0  0  0  0  0  0  0  0  0  0  0  0
   55.7630  160.5570   -2.4765 C   0  0  0  0  0  0  0  0  0  0  0  0
   57.4528  159.9496   -0.2844 C   0  0  0  0  0  0  0  0  0  0  0  0
   56.1796  159.1257   -2.0966 C   0  0  1  0  0  0  0  0  0  0  0  0
   54.0409  154.3761   -4.5156 C   0  0  0  0  0  0  0  0  0  0  0  0
   57.9238  161.6006   -2.8893 C   0  0  0  0  0  0  0  0  0  0  0  0
   53.4819  155.8156   -4.6010 C   0  0  1  0  0  0  0  0  0  0  0  0
   54.0885  157.7730   -1.6537 N   0  5  0  0  0  0  0  0  0  0  0  0
   55.0414  157.4834   -3.6400 N   0  0  0  0  0  0  0  0  0  0  0  0
   53.3437  156.8550   -2.3512 N   0  0  0  0  0  0  0  0  0  0  0  0
   56.7338  161.5727   -2.0431 N   0  0  2  0  0  0  0  0  0  0  0  0
   51.9749  155.6762   -4.6797 N   0  3  0  0  0  0  0  0  0  0  0  0
   56.4244  159.0444   -0.6864 O   0  0  0  0  0  0  0  0  0  0  0  0
   56.1975  161.6853    0.0078 H   0  0  0  0  0  0  0  0  0  0  0  0
   57.8991  162.0557   -0.3379 H   0  0  0  0  0  0  0  0  0  0  0  0
   55.6284  160.6140   -3.5781 H   0  0  0  0  0  0  0  0  0  0  0  0
   54.7638  160.7850   -2.0412 H   0  0  0  0  0  0  0  0  0  0  0  0
   58.3979  159.6644   -0.7621 H   0  0  0  0  0  0  0  0  0  0  0  0
   57.5840  159.8470    0.7973 H   0  0  0  0  0  0  0  0  0  0  0  0
   57.0886  158.8219   -2.6400 H   0  0  0  0  0  0  0  0  0  0  0  0
   53.8296  153.9244   -3.5399 H   0  0  0  0  0  0  0  0  0  0  0  0
   53.6226  153.7168   -5.2843 H   0  0  0  0  0  0  0  0  0  0  0  0
   55.1289  154.3914   -4.6457 H   0  0  0  0  0  0  0  0  0  0  0  0
   57.6381  161.7409   -3.9351 H   0  0  0  0  0  0  0  0  0  0  0  0
   58.4746  160.6605   -2.7982 H   0  0  0  0  0  0  0  0  0  0  0  0
   58.5807  162.4220   -2.5907 H   0  0  0  0  0  0  0  0  0  0  0  0
   53.7411  156.1915   -5.6174 H   0  0  0  0  0  0  0  0  0  0  0  0
   51.5606  156.0300   -3.8238 H   0  0  0  0  0  0  0  0  0  0  0  0
   51.7353  154.6969   -4.7957 H   0  0  0  0  0  0  0  0  0  0  0  0
   51.6301  156.2085   -5.4717 H   0  0  0  0  0  0  0  0  0  0  0  0
  1  6  1  0  0  0  0
  1 10  1  0  0  0  0
  1 11  2  0  0  0  0
  2  9  1  0  0  0  0
  2 11  1  0  0  0  0
  2 12  2  0  0  0  0
  3  5  1  0  0  0  0
  3 13  1  0  0  0  0
  4  6  1  0  0  0  0
  4 13  1  0  0  0  0
  5 15  1  0  0  0  0
  6 15  1  0  0  0  0
  7  9  1  0  0  0  0
  8 13  1  0  0  0  0
  9 14  1  0  0  0  0
 10 12  1  0  0  0  0
  3 16  1  0  0  0  0
  3 17  1  0  0  0  0
  4 18  1  0  0  0  0
  4 19  1  0  0  0  0
  5 20  1  0  0  0  0
  5 21  1  0  0  0  0
  6 22  1  0  0  0  0
  7 23  1  0  0  0  0
  7 24  1  0  0  0  0
  7 25  1  0  0  0  0
  8 26  1  0  0  0  0
  8 27  1  0  0  0  0
  8 28  1  0  0  0  0
  9 29  1  0  0  0  0
 14 30  1  0  0  0  0
 14 31  1  0  0  0  0
 14 32  1  0  0  0  0
M  CHG  2  10  -1  14   1
M  END
> <FRED Chemgauss4 score>
-6.976421

$$$$
C03843087	P04506273
  -OEChem-05122015073D

 23 23  0     1  0  0  0  0  0999 V2000
   55.6744  157.8859   -2.5099 C   0  0  0  0  0  0  0  0  0  0  0  0
   55.4802  156.3423   -5.7612 C   0  0  0  0  0  0  0  0  0  0  0  0
   55.3286  156.7725   -3.4448 C   0  0  1  0  0  0  0  0  0  0  0  0
   53.9914  156.0480   -5.8857 C   0  0  2  0  0  0  0  0  0  0  0  0
   53.8338  156.4711   -3.4048 C   0  0  1  0  0  0  0  0  0  0  0  0
   53.4282  155.5475   -4.5559 C   0  0  1  0  0  0  0  0  0  0  0  0
   56.9817  158.2871   -2.5256 N   0  0  0  0  0  0  0  0  0  0  0  0
   55.7247  157.2778   -4.7164 O   0  0  0  0  0  0  0  0  0  0  0  0
   53.8129  155.0631   -6.8973 O   0  0  0  0  0  0  0  0  0  0  0  0
   53.5293  155.8332   -2.1654 O   0  0  0  0  0  0  0  0  0  0  0  0
   52.0017  155.5217   -4.6206 O   0  0  0  0  0  0  0  0  0  0  0  0
   54.5338  158.5870   -1.5113 S   0  0  0  0  0  0  0  0  0  0  0  0
   56.0596  155.4267   -5.5870 H   0  0  0  0  0  0  0  0  0  0  0  0
   55.8560  156.7686   -6.6978 H   0  0  0  0  0  0  0  0  0  0  0  0
   55.9388  155.9028   -3.1725 H   0  0  0  0  0  0  0  0  0  0  0  0
   53.4581  156.9524   -6.2006 H   0  0  0  0  0  0  0  0  0  0  0  0
   53.2454  157.3978   -3.4502 H   0  0  0  0  0  0  0  0  0  0  0  0
   53.7506  154.5178   -4.3577 H   0  0  0  0  0  0  0  0  0  0  0  0
   57.6565  157.8437   -3.1400 H   0  0  0  0  0  0  0  0  0  0  0  0
   57.3304  159.0338   -1.9332 H   0  0  0  0  0  0  0  0  0  0  0  0
   54.1690  155.4392   -7.7178 H   0  0  0  0  0  0  0  0  0  0  0  0
   54.0538  155.0185   -2.1398 H   0  0  0  0  0  0  0  0  0  0  0  0
   51.7196  156.4319   -4.7959 H   0  0  0  0  0  0  0  0  0  0  0  0
  1  3  1  0  0  0  0
  1  7  1  0  0  0  0
  1 12  2  0  0  0  0
  2  4  1  0  0  0  0
  2  8  1  0  0  0  0
  3  5  1  0  0  0  0
  3  8  1  0  0  0  0
  4  6  1  0  0  0  0
  4  9  1  0  0  0  0
  5  6  1  0  0  0  0
  5 10  1  0  0  0  0
  6 11  1  0  0  0  0
  2 13  1  0  0  0  0
  2 14  1  0  0  0  0
  3 15  1  0  0  0  0
  4 16  1  0  0  0  0
  5 17  1  0  0  0  0
  6 18  1  0  0  0  0
  7 19  1  0  0  0  0
  7 20  1  0  0  0  0
  9 21  1  0  0  0  0
 10 22  1  0  0  0  0
 11 23  1  0  0  0  0
M  END
> <FRED Chemgauss4 score>
-6.972207

$$$$
C83778410	P131081130
  -OEChem-05122015073D

 38 39  0     1  0  0  0  0  0999 V2000
   55.1394  157.3164   -2.6596 C   0  0  0  0  0  0  0  0  0  0  0  0
   53.9474  155.8713   -3.5805 C   0  0  0  0  0  0  0  0  0  0  0  0
   56.5019  158.4323   -0.9015 C   0  0  0  0  0  0  0  0  0  0  0  0
   56.0711  159.5778   -3.1197 C   0  0  0  0  0  0  0  0  0  0  0  0
   57.6537  159.3994   -0.6292 C   0  0  0  0  0  0  0  0  0  0  0  0
   57.2240  160.5422   -2.8422 C   0  0  0  0  0  0  0  0  0  0  0  0
   56.2820  158.2299   -2.4100 C   0  0  0  0  0  0  0  0  0  0  0  0
   57.4447  160.7443   -1.3374 C   0  0  0  0  0  0  0  0  0  0  0  0
   59.9012  161.1042   -1.6283 C   0  0  0  0  0  0  0  0  0  0  0  0
   54.2047  154.4633   -5.6646 C   0  0  0  0  0  0  0  0  0  0  0  0
   58.6310  161.6739   -1.0876 C   0  0  0  0  0  0  0  0  0  0  0  0
   53.3418  154.8435   -4.4423 C   0  0  2  0  0  0  0  0  0  0  0  0
   55.0973  156.4840   -3.7412 N   0  0  0  0  0  0  0  0  0  0  0  0
   54.0879  157.2572   -1.8397 N   0  0  0  0  0  0  0  0  0  0  0  0
   53.3406  156.3257   -2.4513 N   0  0  0  0  0  0  0  0  0  0  0  0
   52.0045  155.2076   -4.9036 N   0  0  0  0  0  0  0  0  0  0  0  0
   56.7146  157.4700   -0.4192 H   0  0  0  0  0  0  0  0  0  0  0  0
   55.5855  158.8185   -0.4354 H   0  0  0  0  0  0  0  0  0  0  0  0
   55.1285  160.0345   -2.7893 H   0  0  0  0  0  0  0  0  0  0  0  0
   55.9795  159.4242   -4.2023 H   0  0  0  0  0  0  0  0  0  0  0  0
   57.7440  159.5570    0.4522 H   0  0  0  0  0  0  0  0  0  0  0  0
   58.5945  158.9431   -0.9629 H   0  0  0  0  0  0  0  0  0  0  0  0
   58.1392  160.1523   -3.3057 H   0  0  0  0  0  0  0  0  0  0  0  0
   57.0111  161.5054   -3.3212 H   0  0  0  0  0  0  0  0  0  0  0  0
   57.1778  157.7537   -2.8299 H   0  0  0  0  0  0  0  0  0  0  0  0
   56.5486  161.2206   -0.9175 H   0  0  0  0  0  0  0  0  0  0  0  0
   60.0997  160.1351   -1.1558 H   0  0  0  0  0  0  0  0  0  0  0  0
   60.7480  161.7654   -1.4156 H   0  0  0  0  0  0  0  0  0  0  0  0
   59.8296  160.9467   -2.7097 H   0  0  0  0  0  0  0  0  0  0  0  0
   54.4141  155.3503   -6.2727 H   0  0  0  0  0  0  0  0  0  0  0  0
   55.1626  154.0215   -5.3680 H   0  0  0  0  0  0  0  0  0  0  0  0
   53.6955  153.7303   -6.3004 H   0  0  0  0  0  0  0  0  0  0  0  0
   58.4323  162.6402   -1.5582 H   0  0  0  0  0  0  0  0  0  0  0  0
   58.7324  161.8419   -0.0125 H   0  0  0  0  0  0  0  0  0  0  0  0
   53.1757  153.8977   -3.8829 H   0  0  0  0  0  0  0  0  0  0  0  0
   52.4506  156.0606   -2.0461 H   0  0  0  0  0  0  0  0  0  0  0  0
   51.4081  155.6972   -4.2726 H   0  0  0  0  0  0  0  0  0  0  0  0
   51.6658  154.7840   -5.7400 H   0  0  0  0  0  0  0  0  0  0  0  0
  1  7  1  0  0  0  0
  1 13  1  0  0  0  0
  1 14  2  0  0  0  0
  2 12  1  0  0  0  0
  2 13  2  0  0  0  0
  2 15  1  0  0  0  0
  3  5  1  0  0  0  0
  3  7  1  0  0  0  0
  4  6  1  0  0  0  0
  4  7  1  0  0  0  0
  5  8  1  0  0  0  0
  6  8  1  0  0  0  0
  8 11  1  0  0  0  0
  9 11  1  0  0  0  0
 10 12  1  0  0  0  0
 12 16  1  0  0  0  0
 14 15  1  0  0  0  0
  3 17  1  0  0  0  0
  3 18  1  0  0  0  0
  4 19  1  0  0  0  0
  4 20  1  0  0  0  0
  5 21  1  0  0  0  0
  5 22  1  0  0  0  0
  6 23  1  0  0  0  0
  6 24  1  0  0  0  0
  7 25  1  0  0  0  0
  8 26  1  0  0  0  0
  9 27  1  0  0  0  0
  9 28  1  0  0  0  0
  9 29  1  0  0  0  0
 10 30  1  0  0  0  0
 10 31  1  0  0  0  0
 10 32  1  0  0  0  0
 11 33  1  0  0  0  0
 11 34  1  0  0  0  0
 12 35  1  0  0  0  0
 15 36  1  0  0  0  0
 16 37  1  0  0  0  0
 16 38  1  0  0  0  0
M  END
> <FRED Chemgauss4 score>
-6.971918

$$$$
C31963761	P48096834
  -OEChem-05122015073D

 26 26  0     0  0  0  0  0  0999 V2000
   56.4336  158.9987   -1.6341 C   0  0  0  0  0  0  0  0  0  0  0  0
   57.2499  159.4657   -2.6429 C   0  0  0  0  0  0  0  0  0  0  0  0
   55.8194  157.6163   -3.2220 C   0  0  0  0  0  0  0  0  0  0  0  0
   53.9481  156.2497   -3.6013 C   0  0  0  0  0  0  0  0  0  0  0  0
   56.3655  159.5279   -0.2565 C   0  0  0  0  0  0  0  0  0  0  0  0
   58.2343  160.5660   -2.6376 C   0  0  0  0  0  0  0  0  0  0  0  0
   53.4009  155.1117   -4.4933 C   0  0  0  0  0  0  0  0  0  0  0  0
   53.3923  155.4862   -5.9704 C   0  0  0  0  0  0  0  0  0  0  0  0
   55.6123  157.9384   -1.9645 N   0  0  0  0  0  0  0  0  0  0  0  0
   55.1711  156.5835   -3.9254 N   0  0  0  0  0  0  0  0  0  0  0  0
   52.5856  156.7137   -6.1800 N   0  3  0  0  0  0  0  0  0  0  0  0
   53.1761  156.6963   -2.7229 O   0  5  0  0  0  0  0  0  0  0  0  0
   56.9883  158.5463   -4.0668 S   0  0  0  0  0  0  0  0  0  0  0  0
   55.6127  160.3285   -0.1766 H   0  0  0  0  0  0  0  0  0  0  0  0
   56.1020  158.7446    0.4738 H   0  0  0  0  0  0  0  0  0  0  0  0
   57.3329  159.9417    0.0747 H   0  0  0  0  0  0  0  0  0  0  0  0
   59.2336  160.2032   -2.3467 H   0  0  0  0  0  0  0  0  0  0  0  0
   58.3260  161.0435   -3.6280 H   0  0  0  0  0  0  0  0  0  0  0  0
   57.9521  161.3699   -1.9365 H   0  0  0  0  0  0  0  0  0  0  0  0
   52.3762  154.8721   -4.1797 H   0  0  0  0  0  0  0  0  0  0  0  0
   53.9988  154.2058   -4.3289 H   0  0  0  0  0  0  0  0  0  0  0  0
   54.4020  155.7157   -6.3230 H   0  0  0  0  0  0  0  0  0  0  0  0
   52.9519  154.7079   -6.6003 H   0  0  0  0  0  0  0  0  0  0  0  0
   52.1962  157.0524   -5.2939 H   0  0  0  0  0  0  0  0  0  0  0  0
   51.8048  156.5337   -6.8203 H   0  0  0  0  0  0  0  0  0  0  0  0
   53.1576  157.4643   -6.5816 H   0  0  0  0  0  0  0  0  0  0  0  0
  1  2  2  0  0  0  0
  1  5  1  0  0  0  0
  1  9  1  0  0  0  0
  2  6  1  0  0  0  0
  2 13  1  0  0  0  0
  3  9  2  0  0  0  0
  3 10  1  0  0  0  0
  3 13  1  0  0  0  0
  4  7  1  0  0  0  0
  4 10  2  0  0  0  0
  4 12  1  0  0  0  0
  7  8  1  0  0  0  0
  8 11  1  0  0  0  0
  5 14  1  0  0  0  0
  5 15  1  0  0  0  0
  5 16  1  0  0  0  0
  6 17  1  0  0  0  0
  6 18  1  0  0  0  0
  6 19  1  0  0  0  0
  7 20  1  0  0  0  0
  7 21  1  0  0  0  0
  8 22  1  0  0  0  0
  8 23  1  0  0  0  0
 11 24  1  0  0  0  0
 11 25  1  0  0  0  0
 11 26  1  0  0  0  0
M  CHG  2  11   1  12  -1
M  END
> <FRED Chemgauss4 score>
-6.969824

$$$$
C93296832	P146059061
  -OEChem-05122015073D

 30 31  0     0  0  0  0  0  0999 V2000
   55.1298  155.5375   -6.5974 C   0  0  0  0  0  0  0  0  0  0  0  0
   57.1450  154.2659   -6.1990 C   0  0  0  0  0  0  0  0  0  0  0  0
   54.6147  154.4844   -7.3532 C   0  0  0  0  0  0  0  0  0  0  0  0
   56.6300  153.2128   -6.9548 C   0  0  0  0  0  0  0  0  0  0  0  0
   57.2484  158.0631   -3.7167 C   0  0  0  0  0  0  0  0  0  0  0  0
   56.3950  155.4283   -6.0203 C   0  0  0  0  0  0  0  0  0  0  0  0
   55.3647  153.3220   -7.5319 C   0  0  0  0  0  0  0  0  0  0  0  0
   56.3710  157.0681   -4.0725 C   0  0  0  0  0  0  0  0  0  0  0  0
   56.9245  156.5124   -5.2416 C   0  0  0  0  0  0  0  0  0  0  0  0
   59.3877  158.9115   -4.7092 C   0  0  0  0  0  0  0  0  0  0  0  0
   55.1327  156.6844   -3.3724 C   0  0  0  0  0  0  0  0  0  0  0  0
   54.8126  152.1962   -8.3391 C   0  0  0  0  0  0  0  0  0  0  0  0
   58.0650  157.1054   -5.6044 N   0  0  0  0  0  0  0  0  0  0  0  0
   58.2354  158.0440   -4.6578 N   0  0  0  0  0  0  0  0  0  0  0  0
   54.1766  157.7677   -3.2791 N   0  0  0  0  0  0  0  0  0  0  0  0
   53.5660  152.4419   -8.8409 F   0  0  0  0  0  0  0  0  0  0  0  0
   55.5765  151.8758   -9.4252 F   0  0  0  0  0  0  0  0  0  0  0  0
   54.6964  151.0419   -7.6200 F   0  0  0  0  0  0  0  0  0  0  0  0
   54.5326  156.4371   -6.4682 H   0  0  0  0  0  0  0  0  0  0  0  0
   58.1329  154.1655   -5.7555 H   0  0  0  0  0  0  0  0  0  0  0  0
   53.6278  154.5773   -7.7987 H   0  0  0  0  0  0  0  0  0  0  0  0
   57.2206  152.3105   -7.0892 H   0  0  0  0  0  0  0  0  0  0  0  0
   57.2538  158.7661   -2.8947 H   0  0  0  0  0  0  0  0  0  0  0  0
   60.1937  158.4355   -4.1446 H   0  0  0  0  0  0  0  0  0  0  0  0
   59.6861  159.0591   -5.7509 H   0  0  0  0  0  0  0  0  0  0  0  0
   59.1313  159.8794   -4.2696 H   0  0  0  0  0  0  0  0  0  0  0  0
   54.6145  155.8476   -3.8760 H   0  0  0  0  0  0  0  0  0  0  0  0
   55.3223  156.3433   -2.3381 H   0  0  0  0  0  0  0  0  0  0  0  0
   53.5219  157.7680   -2.5195 H   0  0  0  0  0  0  0  0  0  0  0  0
   54.0546  158.3715   -4.0705 H   0  0  0  0  0  0  0  0  0  0  0  0
  1  3  2  0  0  0  0
  1  6  1  0  0  0  0
  2  4  1  0  0  0  0
  2  6  2  0  0  0  0
  3  7  1  0  0  0  0
  4  7  2  0  0  0  0
  5  8  2  0  0  0  0
  5 14  1  0  0  0  0
  6  9  1  0  0  0  0
  7 12  1  0  0  0  0
  8  9  1  0  0  0  0
  8 11  1  0  0  0  0
  9 13  2  0  0  0  0
 10 14  1  0  0  0  0
 11 15  1  0  0  0  0
 12 16  1  0  0  0  0
 12 17  1  0  0  0  0
 12 18  1  0  0  0  0
 13 14  1  0  0  0  0
  1 19  1  0  0  0  0
  2 20  1  0  0  0  0
  3 21  1  0  0  0  0
  4 22  1  0  0  0  0
  5 23  1  0  0  0  0
 10 24  1  0  0  0  0
 10 25  1  0  0  0  0
 10 26  1  0  0  0  0
 11 27  1  0  0  0  0
 11 28  1  0  0  0  0
 15 29  1  0  0  0  0
 15 30  1  0  0  0  0
M  END
> <FRED Chemgauss4 score>
-6.969188

$$$$
C94628551	P148327832
  -OEChem-05122015073D

 33 34  0     1  0  0  0  0  0999 V2000
   57.6601  160.1643   -5.8757 C   0  0  0  0  0  0  0  0  0  0  0  0
   57.5502  161.1310   -4.8824 C   0  0  0  0  0  0  0  0  0  0  0  0
   58.8040  160.1129   -6.6645 C   0  0  0  0  0  0  0  0  0  0  0  0
   58.6038  162.0160   -4.7193 C   0  0  0  0  0  0  0  0  0  0  0  0
   59.8013  161.0437   -6.4218 C   0  0  0  0  0  0  0  0  0  0  0  0
   55.6911  155.0611   -6.5600 C   0  0  0  0  0  0  0  0  0  0  0  0
   54.8217  154.4099   -5.4897 C   0  0  0  0  0  0  0  0  0  0  0  0
   56.3016  156.3711   -6.0683 C   0  0  0  0  0  0  0  0  0  0  0  0
   53.7496  155.3678   -4.9853 C   0  0  0  0  0  0  0  0  0  0  0  0
   55.2293  157.3460   -5.5623 C   0  0  1  0  0  0  0  0  0  0  0  0
   54.3495  156.6840   -4.4880 C   0  0  1  0  0  0  0  0  0  0  0  0
   55.8819  158.6278   -5.0374 C   0  0  0  0  0  0  0  0  0  0  0  0
   59.7305  161.9972   -5.4661 N   0  0  0  0  0  0  0  0  0  0  0  0
   56.6257  159.2471   -6.0802 N   0  0  0  0  0  0  0  0  0  0  0  0
   53.2895  157.5689   -4.1343 O   0  0  0  0  0  0  0  0  0  0  0  0
   56.4655  161.2114   -4.1018 F   0  0  0  0  0  0  0  0  0  0  0  0
   58.9458  159.1972   -7.6309 F   0  0  0  0  0  0  0  0  0  0  0  0
   58.5106  162.9537   -3.7636 F   0  0  0  0  0  0  0  0  0  0  0  0
   60.9111  161.0046   -7.1751 F   0  0  0  0  0  0  0  0  0  0  0  0
   56.4893  154.3712   -6.8561 H   0  0  0  0  0  0  0  0  0  0  0  0
   55.0867  155.2536   -7.4550 H   0  0  0  0  0  0  0  0  0  0  0  0
   54.3498  153.5081   -5.8960 H   0  0  0  0  0  0  0  0  0  0  0  0
   55.4515  154.0906   -4.6504 H   0  0  0  0  0  0  0  0  0  0  0  0
   57.0172  156.1553   -5.2645 H   0  0  0  0  0  0  0  0  0  0  0  0
   56.8704  156.8311   -6.8853 H   0  0  0  0  0  0  0  0  0  0  0  0
   53.0257  155.5709   -5.7855 H   0  0  0  0  0  0  0  0  0  0  0  0
   53.1738  154.8959   -4.1797 H   0  0  0  0  0  0  0  0  0  0  0  0
   54.5881  157.6364   -6.4048 H   0  0  0  0  0  0  0  0  0  0  0  0
   54.9426  156.4941   -3.5840 H   0  0  0  0  0  0  0  0  0  0  0  0
   56.5456  158.3671   -4.2254 H   0  0  0  0  0  0  0  0  0  0  0  0
   55.1062  159.2994   -4.6991 H   0  0  0  0  0  0  0  0  0  0  0  0
   56.4050  159.0183   -7.0536 H   0  0  0  0  0  0  0  0  0  0  0  0
   52.7834  157.1279   -3.4345 H   0  0  0  0  0  0  0  0  0  0  0  0
  1  2  1  0  0  0  0
  1  3  2  0  0  0  0
  1 14  1  0  0  0  0
  2  4  2  0  0  0  0
  2 16  1  0  0  0  0
  3  5  1  0  0  0  0
  3 17  1  0  0  0  0
  4 13  1  0  0  0  0
  4 18  1  0  0  0  0
  5 13  2  0  0  0  0
  5 19  1  0  0  0  0
  6  7  1  0  0  0  0
  6  8  1  0  0  0  0
  7  9  1  0  0  0  0
  8 10  1  0  0  0  0
  9 11  1  0  0  0  0
 10 11  1  0  0  0  0
 10 12  1  0  0  0  0
 11 15  1  0  0  0  0
 12 14  1  0  0  0  0
  6 20  1  0  0  0  0
  6 21  1  0  0  0  0
  7 22  1  0  0  0  0
  7 23  1  0  0  0  0
  8 24  1  0  0  0  0
  8 25  1  0  0  0  0
  9 26  1  0  0  0  0
  9 27  1  0  0  0  0
 10 28  1  0  0  0  0
 11 29  1  0  0  0  0
 12 30  1  0  0  0  0
 12 31  1  0  0  0  0
 14 32  1  0  0  0  0
 15 33  1  0  0  0  0
M  END
> <FRED Chemgauss4 score>
-6.957712

$$$$
C88750425	P138824152
  -OEChem-05122015073D

 36 37  0     0  0  0  0  0  0999 V2000
   55.5143  153.3679   -6.5263 C   0  0  0  0  0  0  0  0  0  0  0  0
   56.4331  152.6815   -7.3202 C   0  0  0  0  0  0  0  0  0  0  0  0
   55.7542  154.6953   -6.1711 C   0  0  0  0  0  0  0  0  0  0  0  0
   57.8316  154.6498   -7.4036 C   0  0  0  0  0  0  0  0  0  0  0  0
   51.4984  160.2431   -8.0315 C   0  0  0  0  0  0  0  0  0  0  0  0
   49.6971  160.0764   -6.7728 C   0  0  0  0  0  0  0  0  0  0  0  0
   57.5917  153.3224   -7.7589 C   0  0  0  0  0  0  0  0  0  0  0  0
   56.9128  155.3363   -6.6097 C   0  0  0  0  0  0  0  0  0  0  0  0
   51.8140  159.8557   -6.7505 C   0  0  0  0  0  0  0  0  0  0  0  0
   53.1692  159.5584   -6.1768 C   0  0  0  0  0  0  0  0  0  0  0  0
   55.7325  157.3470   -5.1685 C   0  0  0  0  0  0  0  0  0  0  0  0
   55.7484  158.7715   -4.6459 C   0  0  0  0  0  0  0  0  0  0  0  0
   50.6883  159.7535   -5.9721 N   0  0  0  0  0  0  0  0  0  0  0  0
   50.1388  160.3801   -8.0306 N   0  0  0  0  0  0  0  0  0  0  0  0
   58.5203  152.6278   -8.5616 N   0  0  0  0  0  0  0  0  0  0  0  0
   53.0790  158.8517   -4.8865 N   0  0  0  0  0  0  0  0  0  0  0  0
   54.1738  158.1209   -2.6590 O   0  0  0  0  0  0  0  0  0  0  0  0
   54.3000  160.5335   -3.3799 O   0  0  0  0  0  0  0  0  0  0  0  0
   57.2156  157.0175   -6.1593 S   0  0  0  0  0  0  0  0  0  0  0  0
   54.2809  159.1201   -3.7040 S   0  0  0  0  0  0  0  0  0  0  0  0
   54.6122  152.8687   -6.1848 H   0  0  0  0  0  0  0  0  0  0  0  0
   56.2361  151.6474   -7.5911 H   0  0  0  0  0  0  0  0  0  0  0  0
   55.0263  155.2138   -5.5517 H   0  0  0  0  0  0  0  0  0  0  0  0
   58.7379  155.1428   -7.7499 H   0  0  0  0  0  0  0  0  0  0  0  0
   52.0930  160.4275   -8.9146 H   0  0  0  0  0  0  0  0  0  0  0  0
   48.6496  160.1098   -6.5082 H   0  0  0  0  0  0  0  0  0  0  0  0
   53.7506  158.9336   -6.8636 H   0  0  0  0  0  0  0  0  0  0  0  0
   53.7382  160.4799   -6.0148 H   0  0  0  0  0  0  0  0  0  0  0  0
   54.8496  157.1744   -5.7926 H   0  0  0  0  0  0  0  0  0  0  0  0
   55.6960  156.6311   -4.3410 H   0  0  0  0  0  0  0  0  0  0  0  0
   55.7751  159.5036   -5.4595 H   0  0  0  0  0  0  0  0  0  0  0  0
   56.5956  158.9509   -3.9764 H   0  0  0  0  0  0  0  0  0  0  0  0
   49.5646  160.6563   -8.8158 H   0  0  0  0  0  0  0  0  0  0  0  0
   58.3596  151.6631   -8.7699 H   0  0  0  0  0  0  0  0  0  0  0  0
   59.3691  153.0830   -8.8304 H   0  0  0  0  0  0  0  0  0  0  0  0
   52.7027  157.8975   -4.9587 H   0  0  0  0  0  0  0  0  0  0  0  0
  1  2  1  0  0  0  0
  1  3  2  0  0  0  0
  2  7  2  0  0  0  0
  3  8  1  0  0  0  0
  4  7  1  0  0  0  0
  4  8  2  0  0  0  0
  5  9  2  0  0  0  0
  5 14  1  0  0  0  0
  6 13  2  0  0  0  0
  6 14  1  0  0  0  0
  7 15  1  0  0  0  0
  8 19  1  0  0  0  0
  9 10  1  0  0  0  0
  9 13  1  0  0  0  0
 10 16  1  0  0  0  0
 11 12  1  0  0  0  0
 11 19  1  0  0  0  0
 12 20  1  0  0  0  0
 16 20  1  0  0  0  0
 17 20  2  0  0  0  0
 18 20  2  0  0  0  0
  1 21  1  0  0  0  0
  2 22  1  0  0  0  0
  3 23  1  0  0  0  0
  4 24  1  0  0  0  0
  5 25  1  0  0  0  0
  6 26  1  0  0  0  0
 10 27  1  0  0  0  0
 10 28  1  0  0  0  0
 11 29  1  0  0  0  0
 11 30  1  0  0  0  0
 12 31  1  0  0  0  0
 12 32  1  0  0  0  0
 14 33  1  0  0  0  0
 15 34  1  0  0  0  0
 15 35  1  0  0  0  0
 16 36  1  0  0  0  0
M  END
> <FRED Chemgauss4 score>
-6.955601

$$$$
C85544558	P133897552
  -OEChem-05122015073D

 24 24  0     0  0  0  0  0  0999 V2000
   57.9696  154.5907   -7.1167 C   0  0  0  0  0  0  0  0  0  0  0  0
   57.1311  155.2512   -6.2434 C   0  0  0  0  0  0  0  0  0  0  0  0
   58.2184  156.9851   -7.0316 C   0  0  0  0  0  0  0  0  0  0  0  0
   56.1237  154.5697   -5.3903 C   0  0  0  0  0  0  0  0  0  0  0  0
   53.2664  155.9019   -3.4889 C   0  0  0  0  0  0  0  0  0  0  0  0
   58.6516  158.3818   -7.2539 C   0  0  0  0  0  0  0  0  0  0  0  0
   54.3647  154.8793   -3.6681 C   0  0  0  0  0  0  0  0  0  0  0  0
   57.2726  156.6243   -6.1930 N   0  0  0  0  0  0  0  0  0  0  0  0
   52.6537  156.2266   -4.6802 N   0  0  0  0  0  0  0  0  0  0  0  0
   59.9185  158.6820   -6.6255 N   0  0  0  0  0  0  0  0  0  0  0  0
   55.3593  155.3901   -4.5652 N   0  0  0  0  0  0  0  0  0  0  0  0
   56.0283  153.3461   -5.4356 O   0  0  0  0  0  0  0  0  0  0  0  0
   52.9257  156.3584   -2.4010 O   0  0  0  0  0  0  0  0  0  0  0  0
   58.9792  155.7250   -7.9138 S   0  0  0  0  0  0  0  0  0  0  0  0
   58.0388  153.5317   -7.3225 H   0  0  0  0  0  0  0  0  0  0  0  0
   58.7647  158.6083   -8.3280 H   0  0  0  0  0  0  0  0  0  0  0  0
   57.9216  159.1104   -6.8620 H   0  0  0  0  0  0  0  0  0  0  0  0
   53.9698  153.9523   -4.0925 H   0  0  0  0  0  0  0  0  0  0  0  0
   54.8366  154.6766   -2.7028 H   0  0  0  0  0  0  0  0  0  0  0  0
   52.9465  155.7965   -5.5512 H   0  0  0  0  0  0  0  0  0  0  0  0
   51.8947  156.8982   -4.7360 H   0  0  0  0  0  0  0  0  0  0  0  0
   60.1148  159.6305   -6.3615 H   0  0  0  0  0  0  0  0  0  0  0  0
   60.6467  157.9913   -6.6511 H   0  0  0  0  0  0  0  0  0  0  0  0
   55.5463  156.3927   -4.5433 H   0  0  0  0  0  0  0  0  0  0  0  0
  1  2  2  0  0  0  0
  1 14  1  0  0  0  0
  2  4  1  0  0  0  0
  2  8  1  0  0  0  0
  3  6  1  0  0  0  0
  3  8  2  0  0  0  0
  3 14  1  0  0  0  0
  4 11  1  0  0  0  0
  4 12  2  0  0  0  0
  5  7  1  0  0  0  0
  5  9  1  0  0  0  0
  5 13  2  0  0  0  0
  6 10  1  0  0  0  0
  7 11  1  0  0  0  0
  1 15  1  0  0  0  0
  6 16  1  0  0  0  0
  6 17  1  0  0  0  0
  7 18  1  0  0  0  0
  7 19  1  0  0  0  0
  9 20  1  0  0  0  0
  9 21  1  0  0  0  0
 10 22  1  0  0  0  0
 10 23  1  0  0  0  0
 11 24  1  0  0  0  0
M  END
> <FRED Chemgauss4 score>
-6.953003

$$$$
C39941431	P60608793
  -OEChem-05122015073D

 22 23  0     1  0  0  0  0  0999 V2000
   56.9030  156.8309   -6.1958 C   0  0  0  0  0  0  0  0  0  0  0  0
   56.4098  157.1644   -4.9323 C   0  0  0  0  0  0  0  0  0  0  0  0
   56.3549  155.7601   -6.9171 C   0  0  0  0  0  0  0  0  0  0  0  0
   55.3572  156.4241   -4.4137 C   0  0  0  0  0  0  0  0  0  0  0  0
   54.8171  155.3520   -5.1342 C   0  0  0  0  0  0  0  0  0  0  0  0
   55.3076  155.0072   -6.3837 C   0  0  0  0  0  0  0  0  0  0  0  0
   53.7361  154.6664   -4.3626 C   0  0  0  0  0  0  0  0  0  0  0  0
   54.6914  156.5584   -3.0748 C   0  0  2  0  0  0  0  0  0  0  0  0
   53.4112  155.7135   -3.2813 C   0  0  2  0  0  0  0  0  0  0  0  0
   54.3494  157.9283   -2.7143 N   0  0  0  0  0  0  0  0  0  0  0  0
   53.0262  155.0750   -2.0728 O   0  0  0  0  0  0  0  0  0  0  0  0
   54.7928  153.9772   -7.0667 F   0  0  0  0  0  0  0  0  0  0  0  0
   57.7168  157.4080   -6.6262 H   0  0  0  0  0  0  0  0  0  0  0  0
   56.8440  157.9876   -4.3728 H   0  0  0  0  0  0  0  0  0  0  0  0
   56.7472  155.5177   -7.9006 H   0  0  0  0  0  0  0  0  0  0  0  0
   52.8740  154.4927   -5.0186 H   0  0  0  0  0  0  0  0  0  0  0  0
   54.0850  153.7198   -3.9326 H   0  0  0  0  0  0  0  0  0  0  0  0
   55.3275  156.1026   -2.2809 H   0  0  0  0  0  0  0  0  0  0  0  0
   52.5429  156.3355   -3.5926 H   0  0  0  0  0  0  0  0  0  0  0  0
   55.0090  158.6481   -2.9203 H   0  0  0  0  0  0  0  0  0  0  0  0
   53.5759  158.0747   -2.1011 H   0  0  0  0  0  0  0  0  0  0  0  0
   52.2422  154.5475   -2.2835 H   0  0  0  0  0  0  0  0  0  0  0  0
  1  2  1  0  0  0  0
  1  3  2  0  0  0  0
  2  4  2  0  0  0  0
  3  6  1  0  0  0  0
  4  5  1  0  0  0  0
  4  8  1  0  0  0  0
  5  6  2  0  0  0  0
  5  7  1  0  0  0  0
  6 12  1  0  0  0  0
  7  9  1  0  0  0  0
  8  9  1  0  0  0  0
  8 10  1  0  0  0  0
  9 11  1  0  0  0  0
  1 13  1  0  0  0  0
  2 14  1  0  0  0  0
  3 15  1  0  0  0  0
  7 16  1  0  0  0  0
  7 17  1  0  0  0  0
  8 18  1  0  0  0  0
  9 19  1  0  0  0  0
 10 20  1  0  0  0  0
 10 21  1  0  0  0  0
 11 22  1  0  0  0  0
M  END
> <FRED Chemgauss4 score>
-6.952374

$$$$
C71178555	P109891495
  -OEChem-05122015073D

 26 27  0     0  0  0  0  0  0999 V2000
   59.0582  161.9267   -3.2539 C   0  0  0  0  0  0  0  0  0  0  0  0
   59.5629  160.8214   -2.5689 C   0  0  0  0  0  0  0  0  0  0  0  0
   56.8233  161.3473   -2.5423 C   0  0  0  0  0  0  0  0  0  0  0  0
   54.2885  156.5123   -3.1324 C   0  0  0  0  0  0  0  0  0  0  0  0
   56.6940  157.6665   -3.2265 C   0  0  0  0  0  0  0  0  0  0  0  0
   57.6884  162.1897   -3.2406 C   0  0  0  0  0  0  0  0  0  0  0  0
   58.6978  159.9790   -1.8706 C   0  0  0  0  0  0  0  0  0  0  0  0
   57.3279  160.2420   -1.8573 C   0  0  0  0  0  0  0  0  0  0  0  0
   55.1881  156.2006   -4.1280 C   0  0  0  0  0  0  0  0  0  0  0  0
   55.7942  157.9789   -2.2313 C   0  0  0  0  0  0  0  0  0  0  0  0
   54.8359  155.2065   -5.1790 C   0  0  0  0  0  0  0  0  0  0  0  0
   56.4070  156.7718   -4.1927 N   0  0  0  0  0  0  0  0  0  0  0  0
   54.5753  157.4073   -2.1664 N   0  0  0  0  0  0  0  0  0  0  0  0
   53.6701  155.5935   -5.9340 N   0  0  0  0  0  0  0  0  0  0  0  0
   57.2039  163.2511   -3.8985 F   0  0  0  0  0  0  0  0  0  0  0  0
   59.2028  158.9215   -1.2190 F   0  0  0  0  0  0  0  0  0  0  0  0
   56.2138  159.1708   -0.9682 S   0  0  0  0  0  0  0  0  0  0  0  0
   59.7315  162.5829   -3.7974 H   0  0  0  0  0  0  0  0  0  0  0  0
   60.6294  160.6168   -2.5792 H   0  0  0  0  0  0  0  0  0  0  0  0
   55.7590  161.5697   -2.5446 H   0  0  0  0  0  0  0  0  0  0  0  0
   53.3069  156.0566   -3.0733 H   0  0  0  0  0  0  0  0  0  0  0  0
   57.6776  158.1174   -3.2922 H   0  0  0  0  0  0  0  0  0  0  0  0
   55.6609  155.0737   -5.8944 H   0  0  0  0  0  0  0  0  0  0  0  0
   54.6305  154.2161   -4.7478 H   0  0  0  0  0  0  0  0  0  0  0  0
   53.1130  154.8792   -6.3710 H   0  0  0  0  0  0  0  0  0  0  0  0
   53.5484  156.5609   -6.1811 H   0  0  0  0  0  0  0  0  0  0  0  0
  1  2  1  0  0  0  0
  1  6  2  0  0  0  0
  2  7  2  0  0  0  0
  3  6  1  0  0  0  0
  3  8  2  0  0  0  0
  4  9  2  0  0  0  0
  4 13  1  0  0  0  0
  5 10  1  0  0  0  0
  5 12  2  0  0  0  0
  6 15  1  0  0  0  0
  7  8  1  0  0  0  0
  7 16  1  0  0  0  0
  8 17  1  0  0  0  0
  9 11  1  0  0  0  0
  9 12  1  0  0  0  0
 10 13  2  0  0  0  0
 10 17  1  0  0  0  0
 11 14  1  0  0  0  0
  1 18  1  0  0  0  0
  2 19  1  0  0  0  0
  3 20  1  0  0  0  0
  4 21  1  0  0  0  0
  5 22  1  0  0  0  0
 11 23  1  0  0  0  0
 11 24  1  0  0  0  0
 14 25  1  0  0  0  0
 14 26  1  0  0  0  0
M  END
> <FRED Chemgauss4 score>
-6.946584

$$$$
C63932433	P98159463
  -OEChem-05122015073D

 16 16  0     1  0  0  0  0  0999 V2000
   54.7969  156.2835   -3.7283 C   0  0  0  0  0  0  0  0  0  0  0  0
   54.1359  158.2769   -5.1112 C   0  0  0  0  0  0  0  0  0  0  0  0
   56.1093  156.9391   -5.5549 C   0  0  0  0  0  0  0  0  0  0  0  0
   54.0295  157.6226   -3.7938 C   0  0  2  0  0  0  0  0  0  0  0  0
   55.7872  156.0660   -4.5475 N   0  0  0  0  0  0  0  0  0  0  0  0
   55.1670  157.9689   -5.8785 N   0  3  0  0  0  0  0  0  0  0  0  0
   53.2119  159.1748   -5.4259 N   0  0  0  0  0  0  0  0  0  0  0  0
   54.5659  158.4593   -2.7095 N   0  0  0  0  0  0  0  0  0  0  0  0
   54.4219  155.4776   -2.8469 O   0  5  0  0  0  0  0  0  0  0  0  0
   57.5065  156.7956   -6.4835 S   0  0  0  0  0  0  0  0  0  0  0  0
   52.9681  157.4243   -3.5860 H   0  0  0  0  0  0  0  0  0  0  0  0
   55.2831  158.5096   -6.7311 H   0  0  0  0  0  0  0  0  0  0  0  0
   52.4641  159.3943   -4.7750 H   0  0  0  0  0  0  0  0  0  0  0  0
   53.2416  159.6527   -6.3214 H   0  0  0  0  0  0  0  0  0  0  0  0
   54.8624  158.0015   -1.8809 H   0  0  0  0  0  0  0  0  0  0  0  0
   54.4196  159.4386   -2.7711 H   0  0  0  0  0  0  0  0  0  0  0  0
  1  4  1  0  0  0  0
  1  5  2  0  0  0  0
  1  9  1  0  0  0  0
  2  4  1  0  0  0  0
  2  6  2  0  0  0  0
  2  7  1  0  0  0  0
  3  5  1  0  0  0  0
  3  6  1  0  0  0  0
  3 10  2  0  0  0  0
  4  8  1  0  0  0  0
  4 11  1  0  0  0  0
  6 12  1  0  0  0  0
  7 13  1  0  0  0  0
  7 14  1  0  0  0  0
  8 15  1  0  0  0  0
  8 16  1  0  0  0  0
M  CHG  2   6   1   9  -1
M  END
> <FRED Chemgauss4 score>
-6.936708

$$$$
C83746314	P131018925
  -OEChem-05122015073D

 29 30  0     1  0  0  0  0  0999 V2000
   56.3746  156.9807   -6.1113 C   0  0  0  0  0  0  0  0  0  0  0  0
   56.9194  154.8602   -6.3152 C   0  0  0  0  0  0  0  0  0  0  0  0
   55.2292  156.1363   -1.5498 C   0  0  0  0  0  0  0  0  0  0  0  0
   55.8503  155.6763   -6.0370 C   0  0  0  0  0  0  0  0  0  0  0  0
   54.3841  156.4198   -3.4373 C   0  0  0  0  0  0  0  0  0  0  0  0
   59.6396  155.4869   -8.3323 C   0  0  0  0  0  0  0  0  0  0  0  0
   54.4310  155.2637   -5.7197 C   0  0  0  0  0  0  0  0  0  0  0  0
   59.3264  155.2963   -6.8581 C   0  0  0  0  0  0  0  0  0  0  0  0
   53.7032  156.2560   -4.7854 C   0  0  1  0  0  0  0  0  0  0  0  0
   57.6757  156.9970   -6.4129 N   0  0  0  0  0  0  0  0  0  0  0  0
   54.6043  155.4663   -2.5623 N   0  0  0  0  0  0  0  0  0  0  0  0
   54.8603  157.6001   -2.9576 N   0  0  0  0  0  0  0  0  0  0  0  0
   55.4096  157.4446   -1.7434 N   0  0  0  0  0  0  0  0  0  0  0  0
   57.9779  155.6928   -6.5305 N   0  0  0  0  0  0  0  0  0  0  0  0
   52.3047  155.8375   -4.6193 N   0  0  0  0  0  0  0  0  0  0  0  0
   55.8651  157.9214   -5.9577 H   0  0  0  0  0  0  0  0  0  0  0  0
   57.0151  153.7845   -6.3756 H   0  0  0  0  0  0  0  0  0  0  0  0
   55.5581  155.6394   -0.6466 H   0  0  0  0  0  0  0  0  0  0  0  0
   58.9597  154.9014   -8.9602 H   0  0  0  0  0  0  0  0  0  0  0  0
   60.6637  155.1663   -8.5470 H   0  0  0  0  0  0  0  0  0  0  0  0
   59.5422  156.5377   -8.6246 H   0  0  0  0  0  0  0  0  0  0  0  0
   54.4712  154.2710   -5.2498 H   0  0  0  0  0  0  0  0  0  0  0  0
   53.8713  155.1202   -6.6534 H   0  0  0  0  0  0  0  0  0  0  0  0
   60.0115  155.8857   -6.2383 H   0  0  0  0  0  0  0  0  0  0  0  0
   59.4488  154.2462   -6.5698 H   0  0  0  0  0  0  0  0  0  0  0  0
   53.6725  157.2366   -5.2775 H   0  0  0  0  0  0  0  0  0  0  0  0
   55.8211  158.2113   -1.2184 H   0  0  0  0  0  0  0  0  0  0  0  0
   51.8596  155.4024   -5.3927 H   0  0  0  0  0  0  0  0  0  0  0  0
   51.8112  156.1846   -3.8308 H   0  0  0  0  0  0  0  0  0  0  0  0
  1  4  1  0  0  0  0
  1 10  2  0  0  0  0
  2  4  2  0  0  0  0
  2 14  1  0  0  0  0
  3 11  2  0  0  0  0
  3 13  1  0  0  0  0
  4  7  1  0  0  0  0
  5  9  1  0  0  0  0
  5 11  1  0  0  0  0
  5 12  2  0  0  0  0
  6  8  1  0  0  0  0
  7  9  1  0  0  0  0
  8 14  1  0  0  0  0
  9 15  1  0  0  0  0
 10 14  1  0  0  0  0
 12 13  1  0  0  0  0
  1 16  1  0  0  0  0
  2 17  1  0  0  0  0
  3 18  1  0  0  0  0
  6 19  1  0  0  0  0
  6 20  1  0  0  0  0
  6 21  1  0  0  0  0
  7 22  1  0  0  0  0
  7 23  1  0  0  0  0
  8 24  1  0  0  0  0
  8 25  1  0  0  0  0
  9 26  1  0  0  0  0
 13 27  1  0  0  0  0
 15 28  1  0  0  0  0
 15 29  1  0  0  0  0
M  END
> <FRED Chemgauss4 score>
-6.930037

$$$$
C82915766	P129631297
  -OEChem-05122015073D

 30 30  0     1  0  0  0  0  0999 V2000
   59.1474  155.5182   -6.8540 C   0  0  0  0  0  0  0  0  0  0  0  0
   57.3665  154.2532   -6.6031 C   0  0  0  0  0  0  0  0  0  0  0  0
   58.6502  154.2226   -7.0904 C   0  0  0  0  0  0  0  0  0  0  0  0
   59.3462  153.0894   -7.7204 C   0  0  0  0  0  0  0  0  0  0  0  0
   54.5252  157.6327   -3.2099 C   0  0  0  0  0  0  0  0  0  0  0  0
   55.7812  155.5679   -4.0320 C   0  0  0  0  0  0  0  0  0  0  0  0
   55.9244  156.0538   -5.4819 C   0  0  0  0  0  0  0  0  0  0  0  0
   53.2305  155.5790   -3.9593 C   0  0  0  0  0  0  0  0  0  0  0  0
   54.5271  156.1028   -3.3009 C   0  0  2  0  0  0  0  0  0  0  0  0
   58.2525  156.3140   -6.2626 N   0  0  0  0  0  0  0  0  0  0  0  0
   57.1799  155.5163   -6.1234 N   0  0  0  0  0  0  0  0  0  0  0  0
   52.8064  156.3438   -5.1257 N   0  0  0  0  0  0  0  0  0  0  0  0
   54.5359  155.6129   -1.9534 O   0  0  0  0  0  0  0  0  0  0  0  0
   60.1239  155.9183   -7.0879 H   0  0  0  0  0  0  0  0  0  0  0  0
   56.5887  153.5029   -6.5591 H   0  0  0  0  0  0  0  0  0  0  0  0
   59.8809  152.4796   -6.9714 H   0  0  0  0  0  0  0  0  0  0  0  0
   58.6520  152.4190   -8.2588 H   0  0  0  0  0  0  0  0  0  0  0  0
   60.0883  153.4189   -8.4703 H   0  0  0  0  0  0  0  0  0  0  0  0
   53.6334  158.0005   -2.6907 H   0  0  0  0  0  0  0  0  0  0  0  0
   55.4098  158.0148   -2.6915 H   0  0  0  0  0  0  0  0  0  0  0  0
   54.4914  158.0795   -4.2105 H   0  0  0  0  0  0  0  0  0  0  0  0
   56.6731  155.8890   -3.4761 H   0  0  0  0  0  0  0  0  0  0  0  0
   55.7830  154.4704   -4.0177 H   0  0  0  0  0  0  0  0  0  0  0  0
   55.0617  155.7411   -6.0817 H   0  0  0  0  0  0  0  0  0  0  0  0
   55.9415  157.1498   -5.5221 H   0  0  0  0  0  0  0  0  0  0  0  0
   52.4198  155.5675   -3.2200 H   0  0  0  0  0  0  0  0  0  0  0  0
   53.3696  154.5322   -4.2563 H   0  0  0  0  0  0  0  0  0  0  0  0
   52.8977  157.3373   -5.0969 H   0  0  0  0  0  0  0  0  0  0  0  0
   52.2590  155.8802   -5.8199 H   0  0  0  0  0  0  0  0  0  0  0  0
   53.7328  155.9570   -1.5383 H   0  0  0  0  0  0  0  0  0  0  0  0
  1  3  1  0  0  0  0
  1 10  2  0  0  0  0
  2  3  2  0  0  0  0
  2 11  1  0  0  0  0
  3  4  1  0  0  0  0
  5  9  1  0  0  0  0
  6  7  1  0  0  0  0
  6  9  1  0  0  0  0
  7 11  1  0  0  0  0
  8  9  1  0  0  0  0
  8 12  1  0  0  0  0
  9 13  1  0  0  0  0
 10 11  1  0  0  0  0
  1 14  1  0  0  0  0
  2 15  1  0  0  0  0
  4 16  1  0  0  0  0
  4 17  1  0  0  0  0
  4 18  1  0  0  0  0
  5 19  1  0  0  0  0
  5 20  1  0  0  0  0
  5 21  1  0  0  0  0
  6 22  1  0  0  0  0
  6 23  1  0  0  0  0
  7 24  1  0  0  0  0
  7 25  1  0  0  0  0
  8 26  1  0  0  0  0
  8 27  1  0  0  0  0
 12 28  1  0  0  0  0
 12 29  1  0  0  0  0
 13 30  1  0  0  0  0
M  END
> <FRED Chemgauss4 score>
-6.925965

$$$$
C93778801	P146919869
  -OEChem-05122015073D

 40 42  0     1  0  0  0  0  0999 V2000
   60.6138  157.1925   -8.5109 C   0  0  0  0  0  0  0  0  0  0  0  0
   58.7265  156.6387   -7.8120 C   0  0  0  0  0  0  0  0  0  0  0  0
   54.7935  157.3207   -2.7505 C   0  0  0  0  0  0  0  0  0  0  0  0
   55.9643  159.3804   -5.7600 C   0  0  0  0  0  0  0  0  0  0  0  0
   53.4379  154.4876   -5.7881 C   0  0  0  0  0  0  0  0  0  0  0  0
   53.0069  154.7767   -4.3782 C   0  0  0  0  0  0  0  0  0  0  0  0
   57.4102  158.8861   -5.7333 C   0  0  0  0  0  0  0  0  0  0  0  0
   55.2152  158.9946   -4.4853 C   0  0  0  0  0  0  0  0  0  0  0  0
   56.7078  156.9469   -4.2358 C   0  0  0  0  0  0  0  0  0  0  0  0
   54.3172  155.3063   -4.8868 C   0  0  0  0  0  0  0  0  0  0  0  0
   57.5477  157.3867   -5.4477 C   0  0  1  0  0  0  0  0  0  0  0  0
   55.2753  157.4954   -4.1857 C   0  0  1  0  0  0  0  0  0  0  0  0
   61.9344  157.8308   -8.5596 C   0  0  0  0  0  0  0  0  0  0  0  0
   59.7626  157.3624   -7.4568 N   0  0  0  0  0  0  0  0  0  0  0  0
   60.1695  156.4092   -9.4961 N   0  0  0  0  0  0  0  0  0  0  0  0
   58.9607  156.0682   -9.0242 N   0  0  0  0  0  0  0  0  0  0  0  0
   54.4153  156.7608   -5.1549 N   0  3  0  0  0  0  0  0  0  0  0  0
   54.7768  156.1312   -2.3285 O   0  5  0  0  0  0  0  0  0  0  0  0
   54.4717  158.3928   -2.1656 O   0  0  0  0  0  0  0  0  0  0  0  0
   57.2166  156.3740   -6.9379 S   0  0  0  0  0  0  0  0  0  0  0  0
   55.9523  160.4691   -5.8860 H   0  0  0  0  0  0  0  0  0  0  0  0
   55.4494  158.9564   -6.6291 H   0  0  0  0  0  0  0  0  0  0  0  0
   53.7346  153.4734   -6.0261 H   0  0  0  0  0  0  0  0  0  0  0  0
   52.9192  155.0011   -6.5885 H   0  0  0  0  0  0  0  0  0  0  0  0
   52.1993  155.4840   -4.2335 H   0  0  0  0  0  0  0  0  0  0  0  0
   53.0147  153.9563   -3.6710 H   0  0  0  0  0  0  0  0  0  0  0  0
   57.8834  159.1350   -6.7057 H   0  0  0  0  0  0  0  0  0  0  0  0
   57.9682  159.4709   -4.9746 H   0  0  0  0  0  0  0  0  0  0  0  0
   55.6211  159.5764   -3.6446 H   0  0  0  0  0  0  0  0  0  0  0  0
   54.1662  159.3099   -4.5960 H   0  0  0  0  0  0  0  0  0  0  0  0
   56.6639  155.8327   -4.2149 H   0  0  0  0  0  0  0  0  0  0  0  0
   57.2462  157.2209   -3.2988 H   0  0  0  0  0  0  0  0  0  0  0  0
   55.2225  154.8415   -4.5148 H   0  0  0  0  0  0  0  0  0  0  0  0
   58.6376  157.1991   -5.1898 H   0  0  0  0  0  0  0  0  0  0  0  0
   62.7124  157.1887   -8.1077 H   0  0  0  0  0  0  0  0  0  0  0  0
   62.2561  158.0572   -9.5940 H   0  0  0  0  0  0  0  0  0  0  0  0
   61.9555  158.7986   -8.0232 H   0  0  0  0  0  0  0  0  0  0  0  0
   58.3673  155.4576   -9.5726 H   0  0  0  0  0  0  0  0  0  0  0  0
   54.7851  156.9138   -6.0992 H   0  0  0  0  0  0  0  0  0  0  0  0
   53.4787  157.1785   -5.1411 H   0  0  0  0  0  0  0  0  0  0  0  0
  1 13  1  0  0  0  0
  1 14  1  0  0  0  0
  1 15  2  0  0  0  0
  2 14  2  0  0  0  0
  2 16  1  0  0  0  0
  2 20  1  0  0  0  0
  3 12  1  0  0  0  0
  3 18  1  0  0  0  0
  3 19  2  0  0  0  0
  4  7  1  0  0  0  0
  4  8  1  0  0  0  0
  5  6  1  0  0  0  0
  5 10  1  0  0  0  0
  6 10  1  0  0  0  0
  7 11  1  0  0  0  0
  8 12  1  0  0  0  0
  9 11  1  0  0  0  0
  9 12  1  0  0  0  0
 10 17  1  0  0  0  0
 11 20  1  0  0  0  0
 12 17  1  0  0  0  0
 15 16  1  0  0  0  0
  4 21  1  0  0  0  0
  4 22  1  0  0  0  0
  5 23  1  0  0  0  0
  5 24  1  0  0  0  0
  6 25  1  0  0  0  0
  6 26  1  0  0  0  0
  7 27  1  0  0  0  0
  7 28  1  0  0  0  0
  8 29  1  0  0  0  0
  8 30  1  0  0  0  0
  9 31  1  0  0  0  0
  9 32  1  0  0  0  0
 10 33  1  0  0  0  0
 11 34  1  0  0  0  0
 13 35  1  0  0  0  0
 13 36  1  0  0  0  0
 13 37  1  0  0  0  0
 16 38  1  0  0  0  0
 17 39  1  0  0  0  0
 17 40  1  0  0  0  0
M  CHG  2  17   1  18  -1
M  END
> <FRED Chemgauss4 score>
-6.924253

$$$$
C76166875	P118803985
  -OEChem-05122015073D

 17 17  0     1  0  0  0  0  0999 V2000
   56.0947  158.1585   -3.9581 C   0  0  0  0  0  0  0  0  0  0  0  0
   54.6477  156.8552   -3.1183 C   0  0  0  0  0  0  0  0  0  0  0  0
   53.3688  154.9707   -4.1819 C   0  0  0  0  0  0  0  0  0  0  0  0
   53.7622  155.6533   -2.8759 C   0  0  2  0  0  0  0  0  0  0  0  0
   54.6413  157.9642   -2.3530 N   0  5  0  0  0  0  0  0  0  0  0  0
   55.5369  156.9506   -4.1160 N   0  0  0  0  0  0  0  0  0  0  0  0
   55.5772  158.8081   -2.8970 N   0  0  0  0  0  0  0  0  0  0  0  0
   52.5857  155.9229   -5.0120 N   0  3  0  0  0  0  0  0  0  0  0  0
   52.5855  156.1073   -2.2071 O   0  0  0  0  0  0  0  0  0  0  0  0
   56.8622  158.5643   -4.6012 H   0  0  0  0  0  0  0  0  0  0  0  0
   52.7275  154.0989   -4.0203 H   0  0  0  0  0  0  0  0  0  0  0  0
   54.2364  154.6877   -4.7863 H   0  0  0  0  0  0  0  0  0  0  0  0
   54.2588  154.9349   -2.2120 H   0  0  0  0  0  0  0  0  0  0  0  0
   51.7084  156.1754   -4.5468 H   0  0  0  0  0  0  0  0  0  0  0  0
   52.3564  155.5093   -5.9211 H   0  0  0  0  0  0  0  0  0  0  0  0
   53.1169  156.7832   -5.1784 H   0  0  0  0  0  0  0  0  0  0  0  0
   52.8808  156.5094   -1.3762 H   0  0  0  0  0  0  0  0  0  0  0  0
  1  6  1  0  0  0  0
  1  7  2  0  0  0  0
  2  4  1  0  0  0  0
  2  5  1  0  0  0  0
  2  6  2  0  0  0  0
  3  4  1  0  0  0  0
  3  8  1  0  0  0  0
  4  9  1  0  0  0  0
  5  7  1  0  0  0  0
  1 10  1  0  0  0  0
  3 11  1  0  0  0  0
  3 12  1  0  0  0  0
  4 13  1  0  0  0  0
  8 14  1  0  0  0  0
  8 15  1  0  0  0  0
  8 16  1  0  0  0  0
  9 17  1  0  0  0  0
M  CHG  2   5  -1   8   1
M  END
> <FRED Chemgauss4 score>
-6.923689

$$$$
C77426586	P120815757
  -OEChem-05122015073D

 41 42  0     1  0  0  0  0  0999 V2000
   60.6803  161.4482   -6.9549 C   0  0  0  0  0  0  0  0  0  0  0  0
   61.6375  162.3168   -6.4862 C   0  0  0  0  0  0  0  0  0  0  0  0
   60.1538  161.8361   -4.9293 C   0  0  0  0  0  0  0  0  0  0  0  0
   55.8753  156.0833   -6.3867 C   0  0  0  0  0  0  0  0  0  0  0  0
   55.1527  157.8854   -4.9520 C   0  0  0  0  0  0  0  0  0  0  0  0
   55.8698  154.9299   -5.3903 C   0  0  0  0  0  0  0  0  0  0  0  0
   55.5227  155.9462   -3.2737 C   0  0  0  0  0  0  0  0  0  0  0  0
   55.2445  157.4444   -3.4820 C   0  0  1  0  0  0  0  0  0  0  0  0
   62.0131  163.4209   -4.2845 C   0  0  0  0  0  0  0  0  0  0  0  0
   56.2845  158.2711   -2.7155 C   0  0  0  0  0  0  0  0  0  0  0  0
   57.0682  160.5296   -2.4904 C   0  0  0  0  0  0  0  0  0  0  0  0
   57.9704  160.7231   -3.7016 C   0  0  0  0  0  0  0  0  0  0  0  0
   59.7594  161.1531   -5.9810 N   0  0  0  0  0  0  0  0  0  0  0  0
   61.2867  162.5566   -5.1875 N   0  0  0  0  0  0  0  0  0  0  0  0
   56.2336  157.3780   -5.7988 N   0  0  0  0  0  0  0  0  0  0  0  0
   55.9255  159.6461   -2.7603 N   0  0  0  0  0  0  0  0  0  0  0  0
   54.9623  155.1385   -4.3094 O   0  0  0  0  0  0  0  0  0  0  0  0
   53.9588  157.7355   -2.9112 O   0  0  0  0  0  0  0  0  0  0  0  0
   59.3529  161.8530   -3.3556 S   0  0  0  0  0  0  0  0  0  0  0  0
   60.6071  161.0207   -7.9442 H   0  0  0  0  0  0  0  0  0  0  0  0
   62.5049  162.7675   -6.9481 H   0  0  0  0  0  0  0  0  0  0  0  0
   56.6016  155.8575   -7.1758 H   0  0  0  0  0  0  0  0  0  0  0  0
   54.8997  156.1582   -6.8828 H   0  0  0  0  0  0  0  0  0  0  0  0
   54.1680  157.6380   -5.3721 H   0  0  0  0  0  0  0  0  0  0  0  0
   55.1869  158.9821   -4.9925 H   0  0  0  0  0  0  0  0  0  0  0  0
   55.5306  154.0286   -5.9131 H   0  0  0  0  0  0  0  0  0  0  0  0
   56.8792  154.7105   -5.0210 H   0  0  0  0  0  0  0  0  0  0  0  0
   56.5974  155.7459   -3.1806 H   0  0  0  0  0  0  0  0  0  0  0  0
   55.0630  155.6078   -2.3377 H   0  0  0  0  0  0  0  0  0  0  0  0
   61.6024  164.4295   -4.3795 H   0  0  0  0  0  0  0  0  0  0  0  0
   61.8981  163.0562   -3.2599 H   0  0  0  0  0  0  0  0  0  0  0  0
   63.0737  163.4121   -4.5508 H   0  0  0  0  0  0  0  0  0  0  0  0
   57.2456  158.1308   -3.1873 H   0  0  0  0  0  0  0  0  0  0  0  0
   56.3049  157.9345   -1.6901 H   0  0  0  0  0  0  0  0  0  0  0  0
   56.6505  161.4964   -2.1903 H   0  0  0  0  0  0  0  0  0  0  0  0
   57.6151  160.1222   -1.6336 H   0  0  0  0  0  0  0  0  0  0  0  0
   58.3811  159.7660   -4.0391 H   0  0  0  0  0  0  0  0  0  0  0  0
   57.3904  161.1521   -4.5246 H   0  0  0  0  0  0  0  0  0  0  0  0
   57.0990  157.2970   -5.2677 H   0  0  0  0  0  0  0  0  0  0  0  0
   55.1934  159.8605   -2.0659 H   0  0  0  0  0  0  0  0  0  0  0  0
   53.8352  158.6886   -3.0118 H   0  0  0  0  0  0  0  0  0  0  0  0
  1  2  2  0  0  0  0
  1 13  1  0  0  0  0
  2 14  1  0  0  0  0
  3 13  2  0  0  0  0
  3 14  1  0  0  0  0
  3 19  1  0  0  0  0
  4  6  1  0  0  0  0
  4 15  1  0  0  0  0
  5  8  1  0  0  0  0
  5 15  1  0  0  0  0
  6 17  1  0  0  0  0
  7  8  1  0  0  0  0
  7 17  1  0  0  0  0
  8 10  1  0  0  0  0
  8 18  1  0  0  0  0
  9 14  1  0  0  0  0
 10 16  1  0  0  0  0
 11 12  1  0  0  0  0
 11 16  1  0  0  0  0
 12 19  1  0  0  0  0
  1 20  1  0  0  0  0
  2 21  1  0  0  0  0
  4 22  1  0  0  0  0
  4 23  1  0  0  0  0
  5 24  1  0  0  0  0
  5 25  1  0  0  0  0
  6 26  1  0  0  0  0
  6 27  1  0  0  0  0
  7 28  1  0  0  0  0
  7 29  1  0  0  0  0
  9 30  1  0  0  0  0
  9 31  1  0  0  0  0
  9 32  1  0  0  0  0
 10 33  1  0  0  0  0
 10 34  1  0  0  0  0
 11 35  1  0  0  0  0
 11 36  1  0  0  0  0
 12 37  1  0  0  0  0
 12 38  1  0  0  0  0
 15 39  1  0  0  0  0
 16 40  1  0  0  0  0
 18 41  1  0  0  0  0
M  END
> <FRED Chemgauss4 score>
-6.919516

$$$$
C43705453	P66072042
  -OEChem-05122015073D

 23 24  0     1  0  0  0  0  0999 V2000
   55.3292  154.8132   -5.7427 C   0  0  0  0  0  0  0  0  0  0  0  0
   53.7458  155.9365   -4.9756 C   0  0  0  0  0  0  0  0  0  0  0  0
   59.2220  154.0322   -7.0359 C   0  0  0  0  0  0  0  0  0  0  0  0
   56.8408  153.6745   -7.4038 C   0  0  0  0  0  0  0  0  0  0  0  0
   58.7322  155.4583   -6.8262 C   0  0  0  0  0  0  0  0  0  0  0  0
   56.7444  154.3649   -6.0362 C   0  0  1  0  0  0  0  0  0  0  0  0
   55.0584  155.9097   -4.9752 N   0  0  0  0  0  0  0  0  0  0  0  0
   54.2668  154.1599   -6.2180 N   0  0  0  0  0  0  0  0  0  0  0  0
   53.2671  154.8987   -5.7128 N   0  0  0  0  0  0  0  0  0  0  0  0
   58.2004  153.2063   -7.6847 N   0  0  0  0  0  0  0  0  0  0  0  0
   52.8790  156.7872   -4.3881 N   0  0  0  0  0  0  0  0  0  0  0  0
   57.6115  155.5049   -5.9416 O   0  0  0  0  0  0  0  0  0  0  0  0
   60.1337  154.0332   -7.6516 H   0  0  0  0  0  0  0  0  0  0  0  0
   59.4928  153.5769   -6.0702 H   0  0  0  0  0  0  0  0  0  0  0  0
   56.1684  152.8082   -7.4255 H   0  0  0  0  0  0  0  0  0  0  0  0
   56.5193  154.3490   -8.2050 H   0  0  0  0  0  0  0  0  0  0  0  0
   59.5320  156.0593   -6.3725 H   0  0  0  0  0  0  0  0  0  0  0  0
   58.4759  155.9441   -7.7797 H   0  0  0  0  0  0  0  0  0  0  0  0
   57.0093  153.6865   -5.2550 H   0  0  0  0  0  0  0  0  0  0  0  0
   52.3081  154.6389   -5.9105 H   0  0  0  0  0  0  0  0  0  0  0  0
   58.3563  153.2279   -8.7016 H   0  0  0  0  0  0  0  0  0  0  0  0
   53.1934  157.5589   -3.7807 H   0  0  0  0  0  0  0  0  0  0  0  0
   51.8579  156.6527   -4.4396 H   0  0  0  0  0  0  0  0  0  0  0  0
  1  6  1  0  0  0  0
  1  7  1  0  0  0  0
  1  8  2  0  0  0  0
  2  7  2  0  0  0  0
  2  9  1  0  0  0  0
  2 11  1  0  0  0  0
  3  5  1  0  0  0  0
  3 10  1  0  0  0  0
  4  6  1  0  0  0  0
  4 10  1  0  0  0  0
  5 12  1  0  0  0  0
  6 12  1  0  0  0  0
  8  9  1  0  0  0  0
  3 13  1  0  0  0  0
  3 14  1  0  0  0  0
  4 15  1  0  0  0  0
  4 16  1  0  0  0  0
  5 17  1  0  0  0  0
  5 18  1  0  0  0  0
  6 19  1  0  0  0  0
  9 20  1  0  0  0  0
 10 21  1  0  0  0  0
 11 22  1  0  0  0  0
 11 23  1  0  0  0  0
M  END
> <FRED Chemgauss4 score>
-6.903381

$$$$
C87583858	P137000855
  -OEChem-05122015073D

 26 27  0     1  0  0  0  0  0999 V2000
   53.7358  156.1932   -3.5006 C   0  0  0  0  0  0  0  0  0  0  0  0
   55.0860  157.4297   -2.4303 C   0  0  0  0  0  0  0  0  0  0  0  0
   57.7737  158.5129   -4.1514 C   0  0  0  0  0  0  0  0  0  0  0  0
   58.3267  159.4405   -3.1057 C   0  0  0  0  0  0  0  0  0  0  0  0
   56.8708  159.0651   -3.0834 C   0  0  0  0  0  0  0  0  0  0  0  0
   54.2046  154.3409   -5.1612 C   0  0  0  0  0  0  0  0  0  0  0  0
   56.3422  158.1736   -2.0137 C   0  0  0  0  0  0  0  0  0  0  0  0
   53.1754  155.2888   -4.5022 C   0  0  2  0  0  0  0  0  0  0  0  0
   53.0442  156.6833   -2.4531 N   0  5  0  0  0  0  0  0  0  0  0  0
   54.9991  156.6392   -3.5085 N   0  0  0  0  0  0  0  0  0  0  0  0
   53.9178  157.4842   -1.7608 N   0  0  0  0  0  0  0  0  0  0  0  0
   52.4882  155.9701   -5.6685 N   0  3  0  0  0  0  0  0  0  0  0  0
   57.6767  158.8932   -5.1608 H   0  0  0  0  0  0  0  0  0  0  0  0
   58.0445  157.4660   -4.0905 H   0  0  0  0  0  0  0  0  0  0  0  0
   58.9685  159.0154   -2.3439 H   0  0  0  0  0  0  0  0  0  0  0  0
   58.5996  160.4419   -3.4149 H   0  0  0  0  0  0  0  0  0  0  0  0
   56.1520  159.8217   -3.3742 H   0  0  0  0  0  0  0  0  0  0  0  0
   55.0360  154.9014   -5.6031 H   0  0  0  0  0  0  0  0  0  0  0  0
   54.6289  153.6225   -4.4509 H   0  0  0  0  0  0  0  0  0  0  0  0
   53.7242  153.7712   -5.9646 H   0  0  0  0  0  0  0  0  0  0  0  0
   56.1174  158.7432   -1.0905 H   0  0  0  0  0  0  0  0  0  0  0  0
   57.0993  157.4273   -1.7019 H   0  0  0  0  0  0  0  0  0  0  0  0
   52.3720  154.6406   -4.0826 H   0  0  0  0  0  0  0  0  0  0  0  0
   53.1393  156.0466   -6.4428 H   0  0  0  0  0  0  0  0  0  0  0  0
   52.1857  156.8960   -5.3839 H   0  0  0  0  0  0  0  0  0  0  0  0
   51.6840  155.4198   -5.9513 H   0  0  0  0  0  0  0  0  0  0  0  0
  1  8  1  0  0  0  0
  1  9  1  0  0  0  0
  1 10  2  0  0  0  0
  2  7  1  0  0  0  0
  2 10  1  0  0  0  0
  2 11  2  0  0  0  0
  3  4  1  0  0  0  0
  3  5  1  0  0  0  0
  4  5  1  0  0  0  0
  5  7  1  0  0  0  0
  6  8  1  0  0  0  0
  8 12  1  0  0  0  0
  9 11  1  0  0  0  0
  3 13  1  0  0  0  0
  3 14  1  0  0  0  0
  4 15  1  0  0  0  0
  4 16  1  0  0  0  0
  5 17  1  0  0  0  0
  6 18  1  0  0  0  0
  6 19  1  0  0  0  0
  6 20  1  0  0  0  0
  7 21  1  0  0  0  0
  7 22  1  0  0  0  0
  8 23  1  0  0  0  0
 12 24  1  0  0  0  0
 12 25  1  0  0  0  0
 12 26  1  0  0  0  0
M  CHG  2   9  -1  12   1
M  END
> <FRED Chemgauss4 score>
-6.898120

$$$$
C63405356	P97370607
  -OEChem-05122015073D

 40 42  0     1  0  0  0  0  0999 V2000
   56.4208  163.4589   -2.5319 C   0  0  0  0  0  0  0  0  0  0  0  0
   56.8119  162.3508   -3.3377 C   0  0  0  0  0  0  0  0  0  0  0  0
   56.7153  163.2603   -1.2010 C   0  0  0  0  0  0  0  0  0  0  0  0
   57.3907  161.3475   -2.5919 C   0  0  0  0  0  0  0  0  0  0  0  0
   57.7849  155.4040   -6.5672 C   0  0  0  0  0  0  0  0  0  0  0  0
   55.6626  154.6967   -5.6934 C   0  0  0  0  0  0  0  0  0  0  0  0
   54.1540  155.6340   -4.4592 C   0  0  0  0  0  0  0  0  0  0  0  0
   59.5722  158.8786   -4.6168 C   0  0  0  0  0  0  0  0  0  0  0  0
   57.7100  155.8307   -8.0138 C   0  0  0  0  0  0  0  0  0  0  0  0
   59.1835  157.1700   -6.3745 C   0  0  2  0  0  0  0  0  0  0  0  0
   56.5352  155.6571   -3.5385 C   0  0  0  0  0  0  0  0  0  0  0  0
   57.9346  160.0236   -3.0630 C   0  0  0  0  0  0  0  0  0  0  0  0
   56.9921  154.2047   -6.1360 C   0  0  0  0  0  0  0  0  0  0  0  0
   59.0251  160.2039   -4.1174 C   0  0  0  0  0  0  0  0  0  0  0  0
   58.5094  156.0489   -5.7054 N   0  0  0  0  0  0  0  0  0  0  0  0
   54.5779  154.5460   -6.3970 N   0  0  0  0  0  0  0  0  0  0  0  0
   53.6087  155.1295   -5.6394 N   0  0  0  0  0  0  0  0  0  0  0  0
   55.5010  155.3490   -4.5177 N   0  0  0  0  0  0  0  0  0  0  0  0
   58.8617  158.4130   -5.7136 N   0  0  0  0  0  0  0  0  0  0  0  0
   60.5264  158.3048   -4.0986 O   0  0  0  0  0  0  0  0  0  0  0  0
   53.2722  156.4020   -3.2794 S   0  0  0  0  0  0  0  0  0  0  0  0
   57.4605  161.7430   -0.9273 S   0  0  0  0  0  0  0  0  0  0  0  0
   58.7661  157.2754   -8.1267 S   0  0  0  0  0  0  0  0  0  0  0  0
   55.9482  164.3565   -2.9086 H   0  0  0  0  0  0  0  0  0  0  0  0
   56.6747  162.2978   -4.4104 H   0  0  0  0  0  0  0  0  0  0  0  0
   56.5283  163.9335   -0.3763 H   0  0  0  0  0  0  0  0  0  0  0  0
   58.0753  155.0270   -8.6578 H   0  0  0  0  0  0  0  0  0  0  0  0
   56.6785  156.0784   -8.2757 H   0  0  0  0  0  0  0  0  0  0  0  0
   60.2660  157.0371   -6.2834 H   0  0  0  0  0  0  0  0  0  0  0  0
   56.9818  156.6306   -3.7573 H   0  0  0  0  0  0  0  0  0  0  0  0
   57.3197  154.8960   -3.5651 H   0  0  0  0  0  0  0  0  0  0  0  0
   56.1073  155.6843   -2.5327 H   0  0  0  0  0  0  0  0  0  0  0  0
   58.3253  159.4620   -2.2045 H   0  0  0  0  0  0  0  0  0  0  0  0
   57.1152  159.4132   -3.4643 H   0  0  0  0  0  0  0  0  0  0  0  0
   57.4978  153.7056   -5.3129 H   0  0  0  0  0  0  0  0  0  0  0  0
   56.8663  153.5243   -6.9753 H   0  0  0  0  0  0  0  0  0  0  0  0
   59.8598  160.7845   -3.7050 H   0  0  0  0  0  0  0  0  0  0  0  0
   58.6323  160.7582   -4.9790 H   0  0  0  0  0  0  0  0  0  0  0  0
   52.6468  155.1496   -5.9531 H   0  0  0  0  0  0  0  0  0  0  0  0
   58.0612  158.9396   -6.0511 H   0  0  0  0  0  0  0  0  0  0  0  0
  1  2  1  0  0  0  0
  1  3  2  0  0  0  0
  2  4  2  0  0  0  0
  3 22  1  0  0  0  0
  4 12  1  0  0  0  0
  4 22  1  0  0  0  0
  5  9  1  0  0  0  0
  5 13  1  0  0  0  0
  5 15  2  0  0  0  0
  6 13  1  0  0  0  0
  6 16  2  0  0  0  0
  6 18  1  0  0  0  0
  7 17  1  0  0  0  0
  7 18  1  0  0  0  0
  7 21  2  0  0  0  0
  8 14  1  0  0  0  0
  8 19  1  0  0  0  0
  8 20  2  0  0  0  0
  9 23  1  0  0  0  0
 10 15  1  0  0  0  0
 10 19  1  0  0  0  0
 10 23  1  0  0  0  0
 11 18  1  0  0  0  0
 12 14  1  0  0  0  0
 16 17  1  0  0  0  0
  1 24  1  0  0  0  0
  2 25  1  0  0  0  0
  3 26  1  0  0  0  0
  9 27  1  0  0  0  0
  9 28  1  0  0  0  0
 10 29  1  0  0  0  0
 11 30  1  0  0  0  0
 11 31  1  0  0  0  0
 11 32  1  0  0  0  0
 12 33  1  0  0  0  0
 12 34  1  0  0  0  0
 13 35  1  0  0  0  0
 13 36  1  0  0  0  0
 14 37  1  0  0  0  0
 14 38  1  0  0  0  0
 17 39  1  0  0  0  0
 19 40  1  0  0  0  0
M  END
> <FRED Chemgauss4 score>
-6.893466

$$$$
C16137473	P24436333
  -OEChem-05122015073D

 27 27  0     1  0  0  0  0  0999 V2000
   58.4407  156.6558   -7.5432 C   0  0  0  0  0  0  0  0  0  0  0  0
   55.3275  156.0540   -3.0708 C   0  0  0  0  0  0  0  0  0  0  0  0
   53.8082  156.1116   -3.1401 C   0  0  1  0  0  0  0  0  0  0  0  0
   53.3031  155.4439   -4.4166 C   0  0  2  0  0  0  0  0  0  0  0  0
   54.0452  155.9731   -5.6469 C   0  0  1  0  0  0  0  0  0  0  0  0
   55.5641  155.9464   -5.4277 C   0  0  1  0  0  0  0  0  0  0  0  0
   57.9306  157.5121   -8.4813 N   0  0  0  0  0  0  0  0  0  0  0  0
   57.5788  156.1897   -6.5804 N   0  0  0  0  0  0  0  0  0  0  0  0
   56.2398  156.5466   -6.5787 N   0  0  0  0  0  0  0  0  0  0  0  0
   55.9066  156.6454   -4.2290 O   0  0  0  0  0  0  0  0  0  0  0  0
   53.2525  155.4409   -2.0146 O   0  0  0  0  0  0  0  0  0  0  0  0
   51.9115  155.7241   -4.5759 O   0  0  0  0  0  0  0  0  0  0  0  0
   53.7175  155.1536   -6.7683 O   0  0  0  0  0  0  0  0  0  0  0  0
   60.0488  156.1968   -7.5674 S   0  0  0  0  0  0  0  0  0  0  0  0
   55.6819  156.6040   -2.1919 H   0  0  0  0  0  0  0  0  0  0  0  0
   55.6884  155.0242   -2.9545 H   0  0  0  0  0  0  0  0  0  0  0  0
   53.4675  157.1535   -3.1111 H   0  0  0  0  0  0  0  0  0  0  0  0
   53.3941  154.3527   -4.3473 H   0  0  0  0  0  0  0  0  0  0  0  0
   53.7018  156.9934   -5.8646 H   0  0  0  0  0  0  0  0  0  0  0  0
   55.9166  154.9089   -5.3480 H   0  0  0  0  0  0  0  0  0  0  0  0
   56.9558  157.7924   -8.4679 H   0  0  0  0  0  0  0  0  0  0  0  0
   58.5116  157.8938   -9.2202 H   0  0  0  0  0  0  0  0  0  0  0  0
   57.9026  155.5521   -5.8596 H   0  0  0  0  0  0  0  0  0  0  0  0
   56.1992  157.5594   -6.4944 H   0  0  0  0  0  0  0  0  0  0  0  0
   53.5789  155.9028   -1.2261 H   0  0  0  0  0  0  0  0  0  0  0  0
   51.8318  156.6880   -4.6315 H   0  0  0  0  0  0  0  0  0  0  0  0
   54.0034  154.2547   -6.5449 H   0  0  0  0  0  0  0  0  0  0  0  0
  1  7  1  0  0  0  0
  1  8  1  0  0  0  0
  1 14  2  0  0  0  0
  2  3  1  0  0  0  0
  2 10  1  0  0  0  0
  3  4  1  0  0  0  0
  3 11  1  0  0  0  0
  4  5  1  0  0  0  0
  4 12  1  0  0  0  0
  5  6  1  0  0  0  0
  5 13  1  0  0  0  0
  6  9  1  0  0  0  0
  6 10  1  0  0  0  0
  8  9  1  0  0  0  0
  2 15  1  0  0  0  0
  2 16  1  0  0  0  0
  3 17  1  0  0  0  0
  4 18  1  0  0  0  0
  5 19  1  0  0  0  0
  6 20  1  0  0  0  0
  7 21  1  0  0  0  0
  7 22  1  0  0  0  0
  8 23  1  0  0  0  0
  9 24  1  0  0  0  0
 11 25  1  0  0  0  0
 12 26  1  0  0  0  0
 13 27  1  0  0  0  0
M  END
> <FRED Chemgauss4 score>
-6.888247

$$$$
C91290832	P142798148
  -OEChem-05122015073D

 35 36  0     1  0  0  0  0  0999 V2000
   55.8074  158.8684   -2.6453 C   0  0  0  0  0  0  0  0  0  0  0  0
   61.0097  162.3335   -6.5583 C   0  0  0  0  0  0  0  0  0  0  0  0
   62.0415  162.9287   -5.8716 C   0  0  0  0  0  0  0  0  0  0  0  0
   57.1316  159.1014   -3.1168 C   0  0  0  0  0  0  0  0  0  0  0  0
   55.1231  157.9783   -3.4435 C   0  0  0  0  0  0  0  0  0  0  0  0
   57.4090  158.3803   -4.2574 C   0  0  0  0  0  0  0  0  0  0  0  0
   60.3365  162.4920   -4.5454 C   0  0  0  0  0  0  0  0  0  0  0  0
   62.3334  163.5865   -3.4772 C   0  0  0  0  0  0  0  0  0  0  0  0
   57.1211  162.2509   -3.7393 C   0  0  0  0  0  0  0  0  0  0  0  0
   53.7381  157.4823   -3.2918 C   0  0  0  0  0  0  0  0  0  0  0  0
   59.5329  162.4286   -3.2787 C   0  0  0  0  0  0  0  0  0  0  0  0
   59.9512  162.0644   -5.7272 N   0  0  0  0  0  0  0  0  0  0  0  0
   61.5953  163.0241   -4.5835 N   0  0  0  0  0  0  0  0  0  0  0  0
   53.6061  156.5032   -2.2363 N   0  0  0  0  0  0  0  0  0  0  0  0
   58.3677  161.5165   -3.4048 N   0  0  1  0  0  0  0  0  0  0  0  0
   57.6055  160.6476   -1.0789 O   0  0  0  0  0  0  0  0  0  0  0  0
   59.5356  159.5234   -2.2167 O   0  0  0  0  0  0  0  0  0  0  0  0
   56.0761  157.4274   -4.7552 S   0  0  0  0  0  0  0  0  0  0  0  0
   58.2539  160.1994   -2.2975 S   0  0  0  0  0  0  0  0  0  0  0  0
   59.0564  158.3976   -5.2126 Br  0  0  0  0  0  0  0  0  0  0  0  0
   55.3762  159.3293   -1.7651 H   0  0  0  0  0  0  0  0  0  0  0  0
   60.9752  162.0850   -7.6090 H   0  0  0  0  0  0  0  0  0  0  0  0
   63.0173  163.2793   -6.1775 H   0  0  0  0  0  0  0  0  0  0  0  0
   62.1045  164.6543   -3.4271 H   0  0  0  0  0  0  0  0  0  0  0  0
   62.0363  163.0880   -2.5503 H   0  0  0  0  0  0  0  0  0  0  0  0
   63.4035  163.4310   -3.6404 H   0  0  0  0  0  0  0  0  0  0  0  0
   56.2848  161.5522   -3.8246 H   0  0  0  0  0  0  0  0  0  0  0  0
   57.2369  162.7789   -4.6897 H   0  0  0  0  0  0  0  0  0  0  0  0
   56.8914  162.9810   -2.9585 H   0  0  0  0  0  0  0  0  0  0  0  0
   53.0343  158.3001   -3.0602 H   0  0  0  0  0  0  0  0  0  0  0  0
   53.3634  157.0075   -4.2146 H   0  0  0  0  0  0  0  0  0  0  0  0
   60.1509  162.0733   -2.4469 H   0  0  0  0  0  0  0  0  0  0  0  0
   59.1548  163.4187   -3.0032 H   0  0  0  0  0  0  0  0  0  0  0  0
   52.8668  155.8264   -2.2940 H   0  0  0  0  0  0  0  0  0  0  0  0
   54.1145  156.6418   -1.3817 H   0  0  0  0  0  0  0  0  0  0  0  0
  1  4  1  0  0  0  0
  1  5  2  0  0  0  0
  2  3  2  0  0  0  0
  2 12  1  0  0  0  0
  3 13  1  0  0  0  0
  4  6  2  0  0  0  0
  4 19  1  0  0  0  0
  5 10  1  0  0  0  0
  5 18  1  0  0  0  0
  6 18  1  0  0  0  0
  6 20  1  0  0  0  0
  7 11  1  0  0  0  0
  7 12  2  0  0  0  0
  7 13  1  0  0  0  0
  8 13  1  0  0  0  0
  9 15  1  0  0  0  0
 10 14  1  0  0  0  0
 11 15  1  0  0  0  0
 15 19  1  0  0  0  0
 16 19  2  0  0  0  0
 17 19  2  0  0  0  0
  1 21  1  0  0  0  0
  2 22  1  0  0  0  0
  3 23  1  0  0  0  0
  8 24  1  0  0  0  0
  8 25  1  0  0  0  0
  8 26  1  0  0  0  0
  9 27  1  0  0  0  0
  9 28  1  0  0  0  0
  9 29  1  0  0  0  0
 10 30  1  0  0  0  0
 10 31  1  0  0  0  0
 11 32  1  0  0  0  0
 11 33  1  0  0  0  0
 14 34  1  0  0  0  0
 14 35  1  0  0  0  0
M  END
> <FRED Chemgauss4 score>
-6.887729

$$$$
C80531825	P125774743
  -OEChem-05122015073D

 40 41  0     1  0  0  0  0  0999 V2000
   58.3256  154.3597   -8.0485 C   0  0  0  0  0  0  0  0  0  0  0  0
   58.9810  155.5912   -6.0759 C   0  0  0  0  0  0  0  0  0  0  0  0
   57.1066  154.0459   -7.4476 C   0  0  0  0  0  0  0  0  0  0  0  0
   57.7620  155.2774   -5.4750 C   0  0  0  0  0  0  0  0  0  0  0  0
   59.2629  155.1323   -7.3627 C   0  0  0  0  0  0  0  0  0  0  0  0
   56.8247  154.5047   -6.1608 C   0  0  0  0  0  0  0  0  0  0  0  0
   55.2927  158.2322   -3.5338 C   0  0  0  0  0  0  0  0  0  0  0  0
   54.6291  157.2225   -5.2359 C   0  0  0  0  0  0  0  0  0  0  0  0
   56.2047  158.8497   -2.5639 C   0  0  0  0  0  0  0  0  0  0  0  0
   60.7969  156.9771   -8.1673 C   0  0  0  0  0  0  0  0  0  0  0  0
   53.5494  154.4205   -7.5179 C   0  0  0  0  0  0  0  0  0  0  0  0
   54.4666  156.4810   -6.5313 C   0  0  0  0  0  0  0  0  0  0  0  0
   60.5666  155.4673   -8.0046 C   0  0  1  0  0  0  0  0  0  0  0  0
   55.7433  157.6277   -4.6723 N   0  0  0  0  0  0  0  0  0  0  0  0
   53.9697  158.2266   -3.3576 N   0  0  0  0  0  0  0  0  0  0  0  0
   53.5692  157.5750   -4.4600 N   0  0  0  0  0  0  0  0  0  0  0  0
   61.6967  154.8946   -7.2929 N   0  0  0  0  0  0  0  0  0  0  0  0
   54.1549  155.0453   -6.3145 N   0  0  2  0  0  0  0  0  0  0  0  0
   55.0300  152.6972   -5.6315 O   0  0  0  0  0  0  0  0  0  0  0  0
   55.3259  154.6089   -4.0372 O   0  0  0  0  0  0  0  0  0  0  0  0
   55.2761  154.1084   -5.3986 S   0  0  0  0  0  0  0  0  0  0  0  0
   58.5365  153.9975   -9.0511 H   0  0  0  0  0  0  0  0  0  0  0  0
   59.7054  156.1933   -5.5339 H   0  0  0  0  0  0  0  0  0  0  0  0
   56.3835  153.4428   -7.9905 H   0  0  0  0  0  0  0  0  0  0  0  0
   57.5529  155.6397   -4.4720 H   0  0  0  0  0  0  0  0  0  0  0  0
   56.3862  159.9146   -2.7986 H   0  0  0  0  0  0  0  0  0  0  0  0
   55.8151  158.8037   -1.5292 H   0  0  0  0  0  0  0  0  0  0  0  0
   57.1907  158.3480   -2.5329 H   0  0  0  0  0  0  0  0  0  0  0  0
   60.7571  157.4814   -7.1955 H   0  0  0  0  0  0  0  0  0  0  0  0
   61.7745  157.1840   -8.6172 H   0  0  0  0  0  0  0  0  0  0  0  0
   60.0410  157.4337   -8.8161 H   0  0  0  0  0  0  0  0  0  0  0  0
   53.3328  153.3665   -7.3253 H   0  0  0  0  0  0  0  0  0  0  0  0
   54.2365  154.4892   -8.3657 H   0  0  0  0  0  0  0  0  0  0  0  0
   52.6177  154.9291   -7.7797 H   0  0  0  0  0  0  0  0  0  0  0  0
   53.6561  156.9161   -7.1261 H   0  0  0  0  0  0  0  0  0  0  0  0
   55.3791  156.5382   -7.1340 H   0  0  0  0  0  0  0  0  0  0  0  0
   60.6194  155.0246   -9.0150 H   0  0  0  0  0  0  0  0  0  0  0  0
   52.5798  157.4137   -4.6077 H   0  0  0  0  0  0  0  0  0  0  0  0
   62.5960  155.3174   -7.4081 H   0  0  0  0  0  0  0  0  0  0  0  0
   61.5900  153.9900   -6.8792 H   0  0  0  0  0  0  0  0  0  0  0  0
  1  3  2  0  0  0  0
  1  5  1  0  0  0  0
  2  4  1  0  0  0  0
  2  5  2  0  0  0  0
  3  6  1  0  0  0  0
  4  6  2  0  0  0  0
  5 13  1  0  0  0  0
  6 21  1  0  0  0  0
  7  9  1  0  0  0  0
  7 14  1  0  0  0  0
  7 15  2  0  0  0  0
  8 12  1  0  0  0  0
  8 14  2  0  0  0  0
  8 16  1  0  0  0  0
 10 13  1  0  0  0  0
 11 18  1  0  0  0  0
 12 18  1  0  0  0  0
 13 17  1  0  0  0  0
 15 16  1  0  0  0  0
 18 21  1  0  0  0  0
 19 21  2  0  0  0  0
 20 21  2  0  0  0  0
  1 22  1  0  0  0  0
  2 23  1  0  0  0  0
  3 24  1  0  0  0  0
  4 25  1  0  0  0  0
  9 26  1  0  0  0  0
  9 27  1  0  0  0  0
  9 28  1  0  0  0  0
 10 29  1  0  0  0  0
 10 30  1  0  0  0  0
 10 31  1  0  0  0  0
 11 32  1  0  0  0  0
 11 33  1  0  0  0  0
 11 34  1  0  0  0  0
 12 35  1  0  0  0  0
 12 36  1  0  0  0  0
 13 37  1  0  0  0  0
 16 38  1  0  0  0  0
 17 39  1  0  0  0  0
 17 40  1  0  0  0  0
M  END
> <FRED Chemgauss4 score>
-6.884927

$$$$
C70419488	P108576612
  -OEChem-05122015073D

 35 36  0     0  0  0  0  0  0999 V2000
   56.9382  158.3284   -4.3573 C   0  0  0  0  0  0  0  0  0  0  0  0
   56.5638  159.6040   -2.3400 C   0  0  0  0  0  0  0  0  0  0  0  0
   58.1440  159.0000   -4.5583 C   0  0  0  0  0  0  0  0  0  0  0  0
   57.7697  160.2757   -2.5409 C   0  0  0  0  0  0  0  0  0  0  0  0
   55.5863  155.0362   -5.2660 C   0  0  0  0  0  0  0  0  0  0  0  0
   56.1481  158.6303   -3.2482 C   0  0  0  0  0  0  0  0  0  0  0  0
   58.5598  159.9737   -3.6501 C   0  0  0  0  0  0  0  0  0  0  0  0
   54.6746  155.7528   -4.5433 C   0  0  0  0  0  0  0  0  0  0  0  0
   53.7679  155.2757   -6.5057 C   0  0  0  0  0  0  0  0  0  0  0  0
   60.7798  162.7366   -4.2354 C   0  0  0  0  0  0  0  0  0  0  0  0
   52.8091  155.1919   -7.6319 C   0  0  0  0  0  0  0  0  0  0  0  0
   59.8239  161.9668   -3.3581 C   0  0  0  0  0  0  0  0  0  0  0  0
   54.9828  157.9826   -3.0548 N   0  5  0  0  0  0  0  0  0  0  0  0
   53.5593  155.8864   -5.3348 N   0  0  0  0  0  0  0  0  0  0  0  0
   54.9987  154.7543   -6.4757 N   0  3  0  0  0  0  0  0  0  0  0  0
   60.4082  162.8442   -5.5486 N   0  0  0  0  0  0  0  0  0  0  0  0
   53.6808  155.9248   -2.1967 O   0  0  0  0  0  0  0  0  0  0  0  0
   56.1174  155.7467   -2.4373 O   0  0  0  0  0  0  0  0  0  0  0  0
   59.7367  160.6288   -3.8459 O   0  0  0  0  0  0  0  0  0  0  0  0
   62.1783  163.4308   -3.6413 S   0  0  0  0  0  0  0  0  0  0  0  0
   54.8854  156.4005   -2.8736 S   0  0  0  0  0  0  0  0  0  0  0  0
   56.6301  157.5728   -5.0768 H   0  0  0  0  0  0  0  0  0  0  0  0
   55.9607  159.8535   -1.4697 H   0  0  0  0  0  0  0  0  0  0  0  0
   58.7552  158.7613   -5.4248 H   0  0  0  0  0  0  0  0  0  0  0  0
   58.0878  161.0338   -1.8306 H   0  0  0  0  0  0  0  0  0  0  0  0
   56.5826  154.6752   -5.1039 H   0  0  0  0  0  0  0  0  0  0  0  0
   52.9348  156.0431   -8.3178 H   0  0  0  0  0  0  0  0  0  0  0  0
   52.9412  154.2654   -8.2126 H   0  0  0  0  0  0  0  0  0  0  0  0
   51.7653  155.1902   -7.2802 H   0  0  0  0  0  0  0  0  0  0  0  0
   60.1946  161.9285   -2.3292 H   0  0  0  0  0  0  0  0  0  0  0  0
   58.8254  162.4151   -3.3518 H   0  0  0  0  0  0  0  0  0  0  0  0
   52.7072  156.3738   -5.0714 H   0  0  0  0  0  0  0  0  0  0  0  0
   55.4320  154.2305   -7.2312 H   0  0  0  0  0  0  0  0  0  0  0  0
   59.5503  162.4362   -5.9056 H   0  0  0  0  0  0  0  0  0  0  0  0
   60.9857  163.3445   -6.2162 H   0  0  0  0  0  0  0  0  0  0  0  0
  1  3  2  0  0  0  0
  1  6  1  0  0  0  0
  2  4  1  0  0  0  0
  2  6  2  0  0  0  0
  3  7  1  0  0  0  0
  4  7  2  0  0  0  0
  5  8  2  0  0  0  0
  5 15  1  0  0  0  0
  6 13  1  0  0  0  0
  7 19  1  0  0  0  0
  8 14  1  0  0  0  0
  8 21  1  0  0  0  0
  9 11  1  0  0  0  0
  9 14  1  0  0  0  0
  9 15  2  0  0  0  0
 10 12  1  0  0  0  0
 10 16  1  0  0  0  0
 10 20  2  0  0  0  0
 12 19  1  0  0  0  0
 13 21  1  0  0  0  0
 17 21  2  0  0  0  0
 18 21  2  0  0  0  0
  1 22  1  0  0  0  0
  2 23  1  0  0  0  0
  3 24  1  0  0  0  0
  4 25  1  0  0  0  0
  5 26  1  0  0  0  0
 11 27  1  0  0  0  0
 11 28  1  0  0  0  0
 11 29  1  0  0  0  0
 12 30  1  0  0  0  0
 12 31  1  0  0  0  0
 14 32  1  0  0  0  0
 15 33  1  0  0  0  0
 16 34  1  0  0  0  0
 16 35  1  0  0  0  0
M  CHG  2  13  -1  15   1
M  END
> <FRED Chemgauss4 score>
-6.883871

$$$$
C19428761	P28756483
  -OEChem-05122015073D

 21 20  0     0  0  0  0  0  0999 V2000
   55.2901  154.8213   -5.1766 C   0  0  0  0  0  0  0  0  0  0  0  0
   54.2120  158.6213   -4.5605 C   0  0  0  0  0  0  0  0  0  0  0  0
   53.4917  157.3692   -4.1041 C   0  0  0  0  0  0  0  0  0  0  0  0
   56.3537  154.5762   -6.2262 C   0  0  0  0  0  0  0  0  0  0  0  0
   55.6386  155.9643   -4.3442 N   0  5  0  0  0  0  0  0  0  0  0  0
   53.2667  159.5324   -5.2504 N   0  3  0  0  0  0  0  0  0  0  0  0
   53.6705  155.1305   -2.8892 O   0  0  0  0  0  0  0  0  0  0  0  0
   55.0114  157.0408   -2.0785 O   0  0  0  0  0  0  0  0  0  0  0  0
   56.4742  155.6253   -7.0679 F   0  0  0  0  0  0  0  0  0  0  0  0
   57.5612  154.3455   -5.6676 F   0  0  0  0  0  0  0  0  0  0  0  0
   56.0371  153.4923   -6.9709 F   0  0  0  0  0  0  0  0  0  0  0  0
   54.5423  156.2580   -3.2230 S   0  0  0  0  0  0  0  0  0  0  0  0
   54.3288  154.9821   -5.6780 H   0  0  0  0  0  0  0  0  0  0  0  0
   55.1778  153.9159   -4.5690 H   0  0  0  0  0  0  0  0  0  0  0  0
   54.6076  159.1786   -3.7065 H   0  0  0  0  0  0  0  0  0  0  0  0
   55.0206  158.4080   -5.2654 H   0  0  0  0  0  0  0  0  0  0  0  0
   52.6857  157.6331   -3.4123 H   0  0  0  0  0  0  0  0  0  0  0  0
   53.0597  156.8142   -4.9422 H   0  0  0  0  0  0  0  0  0  0  0  0
   52.7631  159.0422   -5.9975 H   0  0  0  0  0  0  0  0  0  0  0  0
   53.7630  160.3253   -5.6718 H   0  0  0  0  0  0  0  0  0  0  0  0
   52.5725  159.9068   -4.5945 H   0  0  0  0  0  0  0  0  0  0  0  0
  1  4  1  0  0  0  0
  1  5  1  0  0  0  0
  2  3  1  0  0  0  0
  2  6  1  0  0  0  0
  3 12  1  0  0  0  0
  4  9  1  0  0  0  0
  4 10  1  0  0  0  0
  4 11  1  0  0  0  0
  5 12  1  0  0  0  0
  7 12  2  0  0  0  0
  8 12  2  0  0  0  0
  1 13  1  0  0  0  0
  1 14  1  0  0  0  0
  2 15  1  0  0  0  0
  2 16  1  0  0  0  0
  3 17  1  0  0  0  0
  3 18  1  0  0  0  0
  6 19  1  0  0  0  0
  6 20  1  0  0  0  0
  6 21  1  0  0  0  0
M  CHG  2   5  -1   6   1
M  END
> <FRED Chemgauss4 score>
-6.883541

$$$$
C88037226	P137697175
  -OEChem-05122015073D

 26 27  0     1  0  0  0  0  0999 V2000
   56.8664  153.3867   -7.2141 C   0  0  0  0  0  0  0  0  0  0  0  0
   58.2138  153.5411   -7.5414 C   0  0  0  0  0  0  0  0  0  0  0  0
   56.2170  154.4859   -6.6376 C   0  0  0  0  0  0  0  0  0  0  0  0
   58.8351  154.7589   -7.2833 C   0  0  0  0  0  0  0  0  0  0  0  0
   56.9581  155.6419   -6.4352 C   0  0  0  0  0  0  0  0  0  0  0  0
   54.8795  155.8944   -5.7550 C   0  0  0  0  0  0  0  0  0  0  0  0
   60.2799  154.9065   -7.6407 C   0  0  0  0  0  0  0  0  0  0  0  0
   53.1234  155.8791   -3.9289 C   0  0  0  0  0  0  0  0  0  0  0  0
   53.7074  156.5786   -5.1781 C   0  0  2  0  0  0  0  0  0  0  0  0
   54.9237  154.6595   -6.2084 N   0  0  0  0  0  0  0  0  0  0  0  0
   58.2524  155.8496   -6.7286 N   0  0  0  0  0  0  0  0  0  0  0  0
   56.0866  156.5300   -5.8709 N   0  0  0  0  0  0  0  0  0  0  0  0
   52.6256  156.7503   -6.1458 N   0  0  0  0  0  0  0  0  0  0  0  0
   54.0907  155.8326   -2.8849 O   0  0  0  0  0  0  0  0  0  0  0  0
   56.3486  152.4525   -7.4009 H   0  0  0  0  0  0  0  0  0  0  0  0
   58.7587  152.7165   -7.9903 H   0  0  0  0  0  0  0  0  0  0  0  0
   60.3792  155.2776   -8.6666 H   0  0  0  0  0  0  0  0  0  0  0  0
   60.7840  155.6060   -6.9637 H   0  0  0  0  0  0  0  0  0  0  0  0
   60.8055  153.9477   -7.5613 H   0  0  0  0  0  0  0  0  0  0  0  0
   52.2593  156.4393   -3.5551 H   0  0  0  0  0  0  0  0  0  0  0  0
   52.8078  154.8539   -4.1510 H   0  0  0  0  0  0  0  0  0  0  0  0
   53.9548  157.6189   -4.8770 H   0  0  0  0  0  0  0  0  0  0  0  0
   56.2971  157.4790   -5.5916 H   0  0  0  0  0  0  0  0  0  0  0  0
   52.8704  156.9548   -7.0897 H   0  0  0  0  0  0  0  0  0  0  0  0
   51.6987  156.8593   -5.7968 H   0  0  0  0  0  0  0  0  0  0  0  0
   53.6680  155.3859   -2.1347 H   0  0  0  0  0  0  0  0  0  0  0  0
  1  2  2  0  0  0  0
  1  3  1  0  0  0  0
  2  4  1  0  0  0  0
  3  5  2  0  0  0  0
  3 10  1  0  0  0  0
  4  7  1  0  0  0  0
  4 11  2  0  0  0  0
  5 11  1  0  0  0  0
  5 12  1  0  0  0  0
  6  9  1  0  0  0  0
  6 10  2  0  0  0  0
  6 12  1  0  0  0  0
  8  9  1  0  0  0  0
  8 14  1  0  0  0  0
  9 13  1  0  0  0  0
  1 15  1  0  0  0  0
  2 16  1  0  0  0  0
  7 17  1  0  0  0  0
  7 18  1  0  0  0  0
  7 19  1  0  0  0  0
  8 20  1  0  0  0  0
  8 21  1  0  0  0  0
  9 22  1  0  0  0  0
 12 23  1  0  0  0  0
 13 24  1  0  0  0  0
 13 25  1  0  0  0  0
 14 26  1  0  0  0  0
M  END
> <FRED Chemgauss4 score>
-6.882374

$$$$
C01596463	P139535506
  -OEChem-05122015073D

 16 17  0     0  0  0  0  0  0999 V2000
   54.6540  154.2397   -6.5863 C   0  0  0  0  0  0  0  0  0  0  0  0
   56.0393  154.1278   -6.4473 C   0  0  0  0  0  0  0  0  0  0  0  0
   56.0432  155.5006   -4.4819 C   0  0  0  0  0  0  0  0  0  0  0  0
   54.6785  155.6062   -4.6248 C   0  0  0  0  0  0  0  0  0  0  0  0
   53.9752  154.9785   -5.6444 C   0  0  0  0  0  0  0  0  0  0  0  0
   53.6739  156.3039   -3.8237 C   0  0  0  0  0  0  0  0  0  0  0  0
   56.7360  154.7484   -5.4068 N   0  3  0  0  0  0  0  0  0  0  0  0
   52.6225  155.2921   -5.5913 N   0  0  0  0  0  0  0  0  0  0  0  0
   52.4603  156.0483   -4.4436 N   0  0  0  0  0  0  0  0  0  0  0  0
   58.0014  154.6206   -5.3179 O   0  5  0  0  0  0  0  0  0  0  0  0
   53.9091  156.9554   -2.8243 O   0  0  0  0  0  0  0  0  0  0  0  0
   54.1414  153.7592   -7.4119 H   0  0  0  0  0  0  0  0  0  0  0  0
   56.6637  153.5674   -7.1290 H   0  0  0  0  0  0  0  0  0  0  0  0
   56.6361  155.9553   -3.7052 H   0  0  0  0  0  0  0  0  0  0  0  0
   51.9042  154.6405   -5.8730 H   0  0  0  0  0  0  0  0  0  0  0  0
   51.5662  156.3744   -4.0993 H   0  0  0  0  0  0  0  0  0  0  0  0
  1  2  1  0  0  0  0
  1  5  2  0  0  0  0
  2  7  2  0  0  0  0
  3  4  2  0  0  0  0
  3  7  1  0  0  0  0
  4  5  1  0  0  0  0
  4  6  1  0  0  0  0
  5  8  1  0  0  0  0
  6  9  1  0  0  0  0
  6 11  2  0  0  0  0
  7 10  1  0  0  0  0
  8  9  1  0  0  0  0
  1 12  1  0  0  0  0
  2 13  1  0  0  0  0
  3 14  1  0  0  0  0
  8 15  1  0  0  0  0
  9 16  1  0  0  0  0
M  CHG  2   7   1  10  -1
M  END
> <FRED Chemgauss4 score>
-6.879930

$$$$
C49350690	P84543526
  -OEChem-05122015073D

 29 29  0     1  0  0  0  0  0999 V2000
   54.1326  156.1245   -4.0752 C   0  0  0  0  0  0  0  0  0  0  0  0
   54.5845  154.8431   -5.7562 C   0  0  0  0  0  0  0  0  0  0  0  0
   54.3941  156.9536   -2.8844 C   0  0  0  0  0  0  0  0  0  0  0  0
   55.6534  159.8343   -2.1649 C   0  0  0  0  0  0  0  0  0  0  0  0
   57.6328  158.3537   -1.7433 C   0  0  0  0  0  0  0  0  0  0  0  0
   55.8550  161.6168   -3.8848 C   0  0  0  0  0  0  0  0  0  0  0  0
   56.1179  158.4160   -1.8617 C   0  0  2  0  0  0  0  0  0  0  0  0
   56.8122  162.6714   -3.3892 C   0  0  0  0  0  0  0  0  0  0  0  0
   52.9552  155.9202   -4.5760 N   0  0  0  0  0  0  0  0  0  0  0  0
   55.1642  155.5249   -4.7091 N   0  0  0  0  0  0  0  0  0  0  0  0
   53.2090  155.1080   -5.6474 N   0  0  0  0  0  0  0  0  0  0  0  0
   55.6391  157.5573   -2.9128 N   0  0  0  0  0  0  0  0  0  0  0  0
   56.1796  160.3122   -3.3569 N   0  0  0  0  0  0  0  0  0  0  0  0
   55.1391  154.1559   -6.6002 O   0  0  0  0  0  0  0  0  0  0  0  0
   53.5529  157.0573   -1.9983 O   0  0  0  0  0  0  0  0  0  0  0  0
   54.8726  160.4529   -1.4445 O   0  0  0  0  0  0  0  0  0  0  0  0
   56.4887  163.8804   -3.8991 F   0  0  0  0  0  0  0  0  0  0  0  0
   56.7800  162.7732   -2.0434 F   0  0  0  0  0  0  0  0  0  0  0  0
   58.0815  162.3980   -3.7590 F   0  0  0  0  0  0  0  0  0  0  0  0
   58.1173  158.6975   -2.6645 H   0  0  0  0  0  0  0  0  0  0  0  0
   57.9931  158.9855   -0.9247 H   0  0  0  0  0  0  0  0  0  0  0  0
   57.9672  157.3278   -1.5548 H   0  0  0  0  0  0  0  0  0  0  0  0
   55.8856  161.5496   -4.9763 H   0  0  0  0  0  0  0  0  0  0  0  0
   54.8307  161.8516   -3.5809 H   0  0  0  0  0  0  0  0  0  0  0  0
   55.6519  158.0691   -0.9330 H   0  0  0  0  0  0  0  0  0  0  0  0
   56.1489  155.5617   -4.4751 H   0  0  0  0  0  0  0  0  0  0  0  0
   52.4544  154.7817   -6.2376 H   0  0  0  0  0  0  0  0  0  0  0  0
   56.2442  157.3860   -3.7142 H   0  0  0  0  0  0  0  0  0  0  0  0
   56.8504  159.7471   -3.8691 H   0  0  0  0  0  0  0  0  0  0  0  0
  1  3  1  0  0  0  0
  1  9  2  0  0  0  0
  1 10  1  0  0  0  0
  2 10  1  0  0  0  0
  2 11  1  0  0  0  0
  2 14  2  0  0  0  0
  3 12  1  0  0  0  0
  3 15  2  0  0  0  0
  4  7  1  0  0  0  0
  4 13  1  0  0  0  0
  4 16  2  0  0  0  0
  5  7  1  0  0  0  0
  6  8  1  0  0  0  0
  6 13  1  0  0  0  0
  7 12  1  0  0  0  0
  8 17  1  0  0  0  0
  8 18  1  0  0  0  0
  8 19  1  0  0  0  0
  9 11  1  0  0  0  0
  5 20  1  0  0  0  0
  5 21  1  0  0  0  0
  5 22  1  0  0  0  0
  6 23  1  0  0  0  0
  6 24  1  0  0  0  0
  7 25  1  0  0  0  0
 10 26  1  0  0  0  0
 11 27  1  0  0  0  0
 12 28  1  0  0  0  0
 13 29  1  0  0  0  0
M  END
> <FRED Chemgauss4 score>
-6.875991

$$$$
C90017133	P140710816
  -OEChem-05122015073D

 33 33  0     1  0  0  0  0  0999 V2000
   53.6059  155.9204   -3.8062 C   0  0  0  0  0  0  0  0  0  0  0  0
   53.9165  156.6344   -6.1880 C   0  0  0  0  0  0  0  0  0  0  0  0
   58.6988  158.4879   -7.4885 C   0  0  0  0  0  0  0  0  0  0  0  0
   54.9276  155.1949   -3.8566 C   0  0  0  0  0  0  0  0  0  0  0  0
   55.2406  154.7018   -5.2590 C   0  0  0  0  0  0  0  0  0  0  0  0
   55.1953  155.8368   -6.2682 C   0  0  2  0  0  0  0  0  0  0  0  0
   59.8375  156.7206   -9.7749 C   0  0  0  0  0  0  0  0  0  0  0  0
   59.4949  156.2226   -8.3779 C   0  0  0  0  0  0  0  0  0  0  0  0
   58.3618  157.0235   -7.7264 C   0  0  1  0  0  0  0  0  0  0  0  0
   53.2408  156.5828   -4.9731 N   0  0  0  0  0  0  0  0  0  0  0  0
   59.8033  158.7498   -6.7240 N   0  0  0  0  0  0  0  0  0  0  0  0
   56.2930  156.7998   -6.0354 N   0  0  0  0  0  0  0  0  0  0  0  0
   52.9357  155.9633   -2.7749 O   0  0  0  0  0  0  0  0  0  0  0  0
   53.5295  157.3237   -7.1326 O   0  0  0  0  0  0  0  0  0  0  0  0
   57.9430  154.8329   -6.3566 O   0  0  0  0  0  0  0  0  0  0  0  0
   58.6968  156.9096   -5.1418 O   0  0  0  0  0  0  0  0  0  0  0  0
   57.7739  159.7245   -8.1364 S   0  0  0  0  0  0  0  0  0  0  0  0
   57.9097  156.2710   -6.1786 S   0  0  0  0  0  0  0  0  0  0  0  0
   55.7158  155.8814   -3.5259 H   0  0  0  0  0  0  0  0  0  0  0  0
   54.8863  154.3584   -3.1487 H   0  0  0  0  0  0  0  0  0  0  0  0
   56.2386  154.2233   -5.2664 H   0  0  0  0  0  0  0  0  0  0  0  0
   54.5257  153.9081   -5.5420 H   0  0  0  0  0  0  0  0  0  0  0  0
   55.2862  155.4558   -7.3013 H   0  0  0  0  0  0  0  0  0  0  0  0
   60.0898  157.7853   -9.7696 H   0  0  0  0  0  0  0  0  0  0  0  0
   58.9812  156.5839  -10.4433 H   0  0  0  0  0  0  0  0  0  0  0  0
   60.6841  156.1665  -10.1926 H   0  0  0  0  0  0  0  0  0  0  0  0
   59.2489  155.1556   -8.4262 H   0  0  0  0  0  0  0  0  0  0  0  0
   60.3951  156.2983   -7.7549 H   0  0  0  0  0  0  0  0  0  0  0  0
   57.4621  156.9395   -8.3487 H   0  0  0  0  0  0  0  0  0  0  0  0
   52.3636  157.0975   -4.9322 H   0  0  0  0  0  0  0  0  0  0  0  0
   60.3847  158.0165   -6.3327 H   0  0  0  0  0  0  0  0  0  0  0  0
   60.0889  159.7042   -6.5312 H   0  0  0  0  0  0  0  0  0  0  0  0
   56.0857  157.7543   -6.3568 H   0  0  0  0  0  0  0  0  0  0  0  0
  1  4  1  0  0  0  0
  1 10  1  0  0  0  0
  1 13  2  0  0  0  0
  2  6  1  0  0  0  0
  2 10  1  0  0  0  0
  2 14  2  0  0  0  0
  3  9  1  0  0  0  0
  3 11  1  0  0  0  0
  3 17  2  0  0  0  0
  4  5  1  0  0  0  0
  5  6  1  0  0  0  0
  6 12  1  0  0  0  0
  7  8  1  0  0  0  0
  8  9  1  0  0  0  0
  9 18  1  0  0  0  0
 12 18  1  0  0  0  0
 15 18  2  0  0  0  0
 16 18  2  0  0  0  0
  4 19  1  0  0  0  0
  4 20  1  0  0  0  0
  5 21  1  0  0  0  0
  5 22  1  0  0  0  0
  6 23  1  0  0  0  0
  7 24  1  0  0  0  0
  7 25  1  0  0  0  0
  7 26  1  0  0  0  0
  8 27  1  0  0  0  0
  8 28  1  0  0  0  0
  9 29  1  0  0  0  0
 10 30  1  0  0  0  0
 11 31  1  0  0  0  0
 11 32  1  0  0  0  0
 12 33  1  0  0  0  0
M  END
> <FRED Chemgauss4 score>
-6.872596

$$$$
C70062489	P107994538
  -OEChem-05122015073D

 29 30  0     1  0  0  0  0  0999 V2000
   54.2864  156.6861   -3.3126 C   0  0  0  0  0  0  0  0  0  0  0  0
   57.0604  155.0217   -6.4722 C   0  0  0  0  0  0  0  0  0  0  0  0
   55.7993  156.6488   -3.3916 C   0  0  0  0  0  0  0  0  0  0  0  0
   56.3964  157.3830   -4.5841 C   0  0  0  0  0  0  0  0  0  0  0  0
   55.2743  153.5424   -7.0296 C   0  0  0  0  0  0  0  0  0  0  0  0
   54.7218  154.7299   -6.2645 C   0  0  0  0  0  0  0  0  0  0  0  0
   54.1913  157.3961   -5.7244 C   0  0  0  0  0  0  0  0  0  0  0  0
   56.7570  153.5486   -6.6702 C   0  0  1  0  0  0  0  0  0  0  0  0
   55.6626  157.0393   -5.8753 C   0  0  2  0  0  0  0  0  0  0  0  0
   53.6040  156.9177   -4.4853 N   0  0  0  0  0  0  0  0  0  0  0  0
   55.8367  155.6482   -6.2325 N   0  0  0  0  0  0  0  0  0  0  0  0
   57.5935  153.0038   -7.6957 N   0  0  0  0  0  0  0  0  0  0  0  0
   53.7094  156.4375   -2.2522 O   0  0  0  0  0  0  0  0  0  0  0  0
   58.1744  155.5241   -6.4753 O   0  0  0  0  0  0  0  0  0  0  0  0
   56.2013  157.0778   -2.4666 H   0  0  0  0  0  0  0  0  0  0  0  0
   56.0931  155.5926   -3.4175 H   0  0  0  0  0  0  0  0  0  0  0  0
   56.3312  158.4647   -4.4103 H   0  0  0  0  0  0  0  0  0  0  0  0
   57.4614  157.1361   -4.6678 H   0  0  0  0  0  0  0  0  0  0  0  0
   54.7761  152.6025   -6.7733 H   0  0  0  0  0  0  0  0  0  0  0  0
   55.1317  153.7092   -8.1058 H   0  0  0  0  0  0  0  0  0  0  0  0
   53.8636  155.1820   -6.7692 H   0  0  0  0  0  0  0  0  0  0  0  0
   54.4578  154.4687   -5.2349 H   0  0  0  0  0  0  0  0  0  0  0  0
   54.0679  158.4852   -5.7186 H   0  0  0  0  0  0  0  0  0  0  0  0
   53.5914  156.9957   -6.5487 H   0  0  0  0  0  0  0  0  0  0  0  0
   56.9249  153.0399   -5.7099 H   0  0  0  0  0  0  0  0  0  0  0  0
   56.0884  157.6140   -6.7053 H   0  0  0  0  0  0  0  0  0  0  0  0
   52.6045  156.7389   -4.4839 H   0  0  0  0  0  0  0  0  0  0  0  0
   57.2907  152.1754   -8.1688 H   0  0  0  0  0  0  0  0  0  0  0  0
   58.5344  153.3368   -7.7710 H   0  0  0  0  0  0  0  0  0  0  0  0
  1  3  1  0  0  0  0
  1 10  1  0  0  0  0
  1 13  2  0  0  0  0
  2  8  1  0  0  0  0
  2 11  1  0  0  0  0
  2 14  2  0  0  0  0
  3  4  1  0  0  0  0
  4  9  1  0  0  0  0
  5  6  1  0  0  0  0
  5  8  1  0  0  0  0
  6 11  1  0  0  0  0
  7  9  1  0  0  0  0
  7 10  1  0  0  0  0
  8 12  1  0  0  0  0
  9 11  1  0  0  0  0
  3 15  1  0  0  0  0
  3 16  1  0  0  0  0
  4 17  1  0  0  0  0
  4 18  1  0  0  0  0
  5 19  1  0  0  0  0
  5 20  1  0  0  0  0
  6 21  1  0  0  0  0
  6 22  1  0  0  0  0
  7 23  1  0  0  0  0
  7 24  1  0  0  0  0
  8 25  1  0  0  0  0
  9 26  1  0  0  0  0
 10 27  1  0  0  0  0
 12 28  1  0  0  0  0
 12 29  1  0  0  0  0
M  END
> <FRED Chemgauss4 score>
-6.867056

$$$$
C92775311	P145220810
  -OEChem-05122015073D

 34 35  0     1  0  0  0  0  0999 V2000
   57.4159  156.5317   -5.8204 C   0  0  0  0  0  0  0  0  0  0  0  0
   55.5026  154.5912   -6.6178 C   0  0  0  0  0  0  0  0  0  0  0  0
   57.8100  155.3176   -6.3515 C   0  0  0  0  0  0  0  0  0  0  0  0
   56.8603  154.3725   -6.7352 C   0  0  0  0  0  0  0  0  0  0  0  0
   55.0973  155.8170   -6.0866 C   0  0  0  0  0  0  0  0  0  0  0  0
   56.0454  156.7787   -5.6906 C   0  0  0  0  0  0  0  0  0  0  0  0
   58.8903  153.3845   -7.1957 C   0  0  0  0  0  0  0  0  0  0  0  0
   59.1848  154.7711   -6.5980 C   0  0  1  0  0  0  0  0  0  0  0  0
   59.2736  155.5726   -8.8589 C   0  0  0  0  0  0  0  0  0  0  0  0
   53.0998  157.1797   -6.6459 C   0  0  0  0  0  0  0  0  0  0  0  0
   52.8875  155.1921   -5.1449 C   0  0  0  0  0  0  0  0  0  0  0  0
   53.0181  155.5842   -3.6845 C   0  0  0  0  0  0  0  0  0  0  0  0
   57.4974  153.2398   -7.2303 N   0  0  0  0  0  0  0  0  0  0  0  0
   59.9507  155.5364   -7.5687 N   0  0  0  0  0  0  0  0  0  0  0  0
   53.7098  156.0632   -5.9567 N   0  0  3  0  0  0  0  0  0  0  0  0
   59.7245  152.5752   -7.5729 O   0  0  0  0  0  0  0  0  0  0  0  0
   52.6245  156.9410   -3.5229 O   0  0  0  0  0  0  0  0  0  0  0  0
   55.5114  158.4522   -4.9647 Br  0  0  0  0  0  0  0  0  0  0  0  0
   58.1582  157.2630   -5.5165 H   0  0  0  0  0  0  0  0  0  0  0  0
   54.7835  153.8397   -6.9263 H   0  0  0  0  0  0  0  0  0  0  0  0
   59.7247  154.6481   -5.6536 H   0  0  0  0  0  0  0  0  0  0  0  0
   58.2853  156.0273   -8.7519 H   0  0  0  0  0  0  0  0  0  0  0  0
   59.1540  154.5592   -9.2515 H   0  0  0  0  0  0  0  0  0  0  0  0
   59.8554  156.1595   -9.5747 H   0  0  0  0  0  0  0  0  0  0  0  0
   52.0287  157.2143   -6.4305 H   0  0  0  0  0  0  0  0  0  0  0  0
   53.2386  157.0789   -7.7257 H   0  0  0  0  0  0  0  0  0  0  0  0
   53.5547  158.1190   -6.3203 H   0  0  0  0  0  0  0  0  0  0  0  0
   53.2144  154.1605   -5.3095 H   0  0  0  0  0  0  0  0  0  0  0  0
   51.8499  155.2963   -5.4760 H   0  0  0  0  0  0  0  0  0  0  0  0
   54.0607  155.4945   -3.3641 H   0  0  0  0  0  0  0  0  0  0  0  0
   52.3918  154.9570   -3.0418 H   0  0  0  0  0  0  0  0  0  0  0  0
   57.0163  152.4162   -7.5718 H   0  0  0  0  0  0  0  0  0  0  0  0
   60.8703  155.1097   -7.6859 H   0  0  0  0  0  0  0  0  0  0  0  0
   52.7225  157.1501   -2.5800 H   0  0  0  0  0  0  0  0  0  0  0  0
  1  3  1  0  0  0  0
  1  6  2  0  0  0  0
  2  4  1  0  0  0  0
  2  5  2  0  0  0  0
  3  4  2  0  0  0  0
  3  8  1  0  0  0  0
  4 13  1  0  0  0  0
  5  6  1  0  0  0  0
  5 15  1  0  0  0  0
  6 18  1  0  0  0  0
  7  8  1  0  0  0  0
  7 13  1  0  0  0  0
  7 16  2  0  0  0  0
  8 14  1  0  0  0  0
  9 14  1  0  0  0  0
 10 15  1  0  0  0  0
 11 12  1  0  0  0  0
 11 15  1  0  0  0  0
 12 17  1  0  0  0  0
  1 19  1  0  0  0  0
  2 20  1  0  0  0  0
  8 21  1  0  0  0  0
  9 22  1  0  0  0  0
  9 23  1  0  0  0  0
  9 24  1  0  0  0  0
 10 25  1  0  0  0  0
 10 26  1  0  0  0  0
 10 27  1  0  0  0  0
 11 28  1  0  0  0  0
 11 29  1  0  0  0  0
 12 30  1  0  0  0  0
 12 31  1  0  0  0  0
 13 32  1  0  0  0  0
 14 33  1  0  0  0  0
 17 34  1  0  0  0  0
M  END
> <FRED Chemgauss4 score>
-6.866240

$$$$
C37580833	P55894510
  -OEChem-05122015073D

 41 41  0     0  0  0  0  0  0999 V2000
   58.2717  155.9596   -6.9352 C   0  0  0  0  0  0  0  0  0  0  0  0
   59.3170  156.1156   -7.5062 C   0  0  0  0  0  0  0  0  0  0  0  0
   56.4543  154.5043   -6.1882 C   0  0  0  0  0  0  0  0  0  0  0  0
   55.2414  154.3218   -5.5240 C   0  0  0  0  0  0  0  0  0  0  0  0
   56.3915  156.8601   -5.6558 C   0  0  0  0  0  0  0  0  0  0  0  0
   57.0294  155.7734   -6.2541 C   0  0  0  0  0  0  0  0  0  0  0  0
   54.6036  155.4085   -4.9257 C   0  0  0  0  0  0  0  0  0  0  0  0
   55.1786  156.6776   -4.9916 C   0  0  0  0  0  0  0  0  0  0  0  0
   53.3059  155.1781   -4.2223 C   0  0  0  0  0  0  0  0  0  0  0  0
   51.7647  161.1898   -7.1607 C   0  0  0  0  0  0  0  0  0  0  0  0
   53.8368  162.0367   -6.2881 C   0  0  0  0  0  0  0  0  0  0  0  0
   60.5883  156.3081   -8.2023 C   0  0  0  0  0  0  0  0  0  0  0  0
   53.0140  158.4113   -6.6024 C   0  0  0  0  0  0  0  0  0  0  0  0
   53.6669  159.7360   -6.9594 C   0  0  0  0  0  0  0  0  0  0  0  0
   61.5752  155.3707   -7.7444 N   0  0  0  0  0  0  0  0  0  0  0  0
   52.9589  158.1991   -5.1809 N   0  0  0  0  0  0  0  0  0  0  0  0
   52.9561  160.8724   -6.3743 N   0  0  0  0  0  0  0  0  0  0  0  0
   54.0360  157.7132   -2.8863 O   0  0  0  0  0  0  0  0  0  0  0  0
   55.2519  159.2206   -4.4905 O   0  0  0  0  0  0  0  0  0  0  0  0
   54.3967  158.0755   -4.2437 S   0  0  0  0  0  0  0  0  0  0  0  0
   56.9399  153.6477   -6.6496 H   0  0  0  0  0  0  0  0  0  0  0  0
   54.8018  153.3287   -5.4788 H   0  0  0  0  0  0  0  0  0  0  0  0
   56.8385  157.8511   -5.7060 H   0  0  0  0  0  0  0  0  0  0  0  0
   53.4834  154.9354   -3.1684 H   0  0  0  0  0  0  0  0  0  0  0  0
   52.6645  156.0664   -4.2736 H   0  0  0  0  0  0  0  0  0  0  0  0
   52.7472  154.3537   -4.6822 H   0  0  0  0  0  0  0  0  0  0  0  0
   51.1108  160.3159   -7.2214 H   0  0  0  0  0  0  0  0  0  0  0  0
   52.0487  161.4878   -8.1737 H   0  0  0  0  0  0  0  0  0  0  0  0
   51.2125  162.0109   -6.6957 H   0  0  0  0  0  0  0  0  0  0  0  0
   54.7250  161.7932   -5.6994 H   0  0  0  0  0  0  0  0  0  0  0  0
   53.3154  162.8704   -5.8100 H   0  0  0  0  0  0  0  0  0  0  0  0
   54.1516  162.3474   -7.2880 H   0  0  0  0  0  0  0  0  0  0  0  0
   60.9816  157.3136   -8.0263 H   0  0  0  0  0  0  0  0  0  0  0  0
   60.4746  156.1651   -9.2807 H   0  0  0  0  0  0  0  0  0  0  0  0
   53.5583  157.5675   -7.0381 H   0  0  0  0  0  0  0  0  0  0  0  0
   51.9836  158.3887   -6.9705 H   0  0  0  0  0  0  0  0  0  0  0  0
   54.6923  159.7678   -6.5786 H   0  0  0  0  0  0  0  0  0  0  0  0
   53.6943  159.8878   -8.0433 H   0  0  0  0  0  0  0  0  0  0  0  0
   61.6106  155.1302   -6.7656 H   0  0  0  0  0  0  0  0  0  0  0  0
   62.3401  155.1228   -8.3535 H   0  0  0  0  0  0  0  0  0  0  0  0
   52.1027  158.5152   -4.6789 H   0  0  0  0  0  0  0  0  0  0  0  0
  1  2  3  0  0  0  0
  1  6  1  0  0  0  0
  2 12  1  0  0  0  0
  3  4  2  0  0  0  0
  3  6  1  0  0  0  0
  4  7  1  0  0  0  0
  5  6  2  0  0  0  0
  5  8  1  0  0  0  0
  7  8  2  0  0  0  0
  7  9  1  0  0  0  0
  8 20  1  0  0  0  0
 10 17  1  0  0  0  0
 11 17  1  0  0  0  0
 12 15  1  0  0  0  0
 13 14  1  0  0  0  0
 13 16  1  0  0  0  0
 14 17  1  0  0  0  0
 16 20  1  0  0  0  0
 18 20  2  0  0  0  0
 19 20  2  0  0  0  0
  3 21  1  0  0  0  0
  4 22  1  0  0  0  0
  5 23  1  0  0  0  0
  9 24  1  0  0  0  0
  9 25  1  0  0  0  0
  9 26  1  0  0  0  0
 10 27  1  0  0  0  0
 10 28  1  0  0  0  0
 10 29  1  0  0  0  0
 11 30  1  0  0  0  0
 11 31  1  0  0  0  0
 11 32  1  0  0  0  0
 12 33  1  0  0  0  0
 12 34  1  0  0  0  0
 13 35  1  0  0  0  0
 13 36  1  0  0  0  0
 14 37  1  0  0  0  0
 14 38  1  0  0  0  0
 15 39  1  0  0  0  0
 15 40  1  0  0  0  0
 16 41  1  0  0  0  0
M  END
> <FRED Chemgauss4 score>
-6.861668

$$$$
C45014850	P67846596
  -OEChem-05122015073D

 24 24  0     0  0  0  0  0  0999 V2000
   59.0017  156.8286   -5.8471 C   0  0  0  0  0  0  0  0  0  0  0  0
   58.7252  157.0550   -7.2065 C   0  0  0  0  0  0  0  0  0  0  0  0
   57.7628  156.6708   -5.2846 C   0  0  0  0  0  0  0  0  0  0  0  0
   54.9151  156.7101   -3.2217 C   0  0  0  0  0  0  0  0  0  0  0  0
   53.5680  156.0619   -3.3155 C   0  0  0  0  0  0  0  0  0  0  0  0
   59.6866  157.2934   -8.2949 C   0  0  0  0  0  0  0  0  0  0  0  0
   57.2819  156.4035   -3.8877 C   0  0  0  0  0  0  0  0  0  0  0  0
   57.4150  157.0388   -7.4672 N   0  0  0  0  0  0  0  0  0  0  0  0
   51.8875  155.3877   -4.8442 N   0  0  0  0  0  0  0  0  0  0  0  0
   55.8982  155.9907   -3.8622 N   0  0  0  0  0  0  0  0  0  0  0  0
   53.1257  155.9480   -4.6109 N   0  0  0  0  0  0  0  0  0  0  0  0
   55.0047  157.7552   -2.5976 O   0  0  0  0  0  0  0  0  0  0  0  0
   53.0194  155.7322   -2.2757 O   0  0  0  0  0  0  0  0  0  0  0  0
   56.8076  156.7941   -6.2414 O   0  0  0  0  0  0  0  0  0  0  0  0
   59.9592  156.7867   -5.3489 H   0  0  0  0  0  0  0  0  0  0  0  0
   59.9979  156.3470   -8.7703 H   0  0  0  0  0  0  0  0  0  0  0  0
   59.2692  157.9407   -9.0873 H   0  0  0  0  0  0  0  0  0  0  0  0
   60.6011  157.8030   -7.9408 H   0  0  0  0  0  0  0  0  0  0  0  0
   57.8783  155.6134   -3.4186 H   0  0  0  0  0  0  0  0  0  0  0  0
   57.3762  157.2972   -3.2618 H   0  0  0  0  0  0  0  0  0  0  0  0
   51.4985  155.8586   -5.6601 H   0  0  0  0  0  0  0  0  0  0  0  0
   51.2922  155.6482   -4.0591 H   0  0  0  0  0  0  0  0  0  0  0  0
   55.6541  155.1243   -4.3327 H   0  0  0  0  0  0  0  0  0  0  0  0
   53.7003  156.2707   -5.3830 H   0  0  0  0  0  0  0  0  0  0  0  0
  1  2  1  0  0  0  0
  1  3  2  0  0  0  0
  2  6  1  0  0  0  0
  2  8  2  0  0  0  0
  3  7  1  0  0  0  0
  3 14  1  0  0  0  0
  4  5  1  0  0  0  0
  4 10  1  0  0  0  0
  4 12  2  0  0  0  0
  5 11  1  0  0  0  0
  5 13  2  0  0  0  0
  7 10  1  0  0  0  0
  8 14  1  0  0  0  0
  9 11  1  0  0  0  0
  1 15  1  0  0  0  0
  6 16  1  0  0  0  0
  6 17  1  0  0  0  0
  6 18  1  0  0  0  0
  7 19  1  0  0  0  0
  7 20  1  0  0  0  0
  9 21  1  0  0  0  0
  9 22  1  0  0  0  0
 10 23  1  0  0  0  0
 11 24  1  0  0  0  0
M  END
> <FRED Chemgauss4 score>
-6.860699

$$$$
C82988366	P129757104
  -OEChem-05122015073D

 34 34  0     1  0  0  0  0  0999 V2000
   60.7552  161.8031   -6.6781 C   0  0  0  0  0  0  0  0  0  0  0  0
   59.6542  161.5139   -5.8797 C   0  0  0  0  0  0  0  0  0  0  0  0
   61.7429  162.6189   -6.1500 C   0  0  0  0  0  0  0  0  0  0  0  0
   60.6160  162.8469   -4.1609 C   0  0  0  0  0  0  0  0  0  0  0  0
   59.5755  162.0419   -4.5959 C   0  0  0  0  0  0  0  0  0  0  0  0
   59.1784  159.8735   -2.4233 C   0  0  0  0  0  0  0  0  0  0  0  0
   58.4000  161.7478   -3.7093 C   0  0  0  0  0  0  0  0  0  0  0  0
   55.0988  158.1738   -2.8663 C   0  0  0  0  0  0  0  0  0  0  0  0
   56.8712  160.0042   -3.0807 C   0  0  0  0  0  0  0  0  0  0  0  0
   54.8662  156.6769   -2.6711 C   0  0  0  0  0  0  0  0  0  0  0  0
   56.5368  158.5173   -3.2953 C   0  0  2  0  0  0  0  0  0  0  0  0
   61.7015  163.1501   -4.9075 N   0  0  0  0  0  0  0  0  0  0  0  0
   56.7302  158.1894   -4.7118 N   0  0  0  0  0  0  0  0  0  0  0  0
   58.2461  160.3139   -3.4618 N   0  0  2  0  0  0  0  0  0  0  0  0
   53.5183  156.4479   -2.2782 O   0  0  0  0  0  0  0  0  0  0  0  0
   60.8379  161.4023   -7.6819 H   0  0  0  0  0  0  0  0  0  0  0  0
   58.8631  160.8768   -6.2658 H   0  0  0  0  0  0  0  0  0  0  0  0
   62.6217  162.8744   -6.7328 H   0  0  0  0  0  0  0  0  0  0  0  0
   60.6100  163.2870   -3.1685 H   0  0  0  0  0  0  0  0  0  0  0  0
   59.0598  158.8021   -2.2418 H   0  0  0  0  0  0  0  0  0  0  0  0
   58.9872  160.4117   -1.4909 H   0  0  0  0  0  0  0  0  0  0  0  0
   60.2087  160.0659   -2.7342 H   0  0  0  0  0  0  0  0  0  0  0  0
   58.5125  162.2471   -2.7407 H   0  0  0  0  0  0  0  0  0  0  0  0
   57.4694  162.1121   -4.1568 H   0  0  0  0  0  0  0  0  0  0  0  0
   54.8365  158.7022   -1.9397 H   0  0  0  0  0  0  0  0  0  0  0  0
   54.3854  158.5358   -3.6173 H   0  0  0  0  0  0  0  0  0  0  0  0
   56.1923  160.6369   -3.6647 H   0  0  0  0  0  0  0  0  0  0  0  0
   56.7378  160.2707   -2.0253 H   0  0  0  0  0  0  0  0  0  0  0  0
   55.0557  156.1217   -3.5954 H   0  0  0  0  0  0  0  0  0  0  0  0
   55.5112  156.2706   -1.8867 H   0  0  0  0  0  0  0  0  0  0  0  0
   57.2353  157.9043   -2.7121 H   0  0  0  0  0  0  0  0  0  0  0  0
   56.2604  157.3902   -5.0700 H   0  0  0  0  0  0  0  0  0  0  0  0
   57.4682  158.6468   -5.1959 H   0  0  0  0  0  0  0  0  0  0  0  0
   53.4193  155.4889   -2.1670 H   0  0  0  0  0  0  0  0  0  0  0  0
  1  2  2  0  0  0  0
  1  3  1  0  0  0  0
  2  5  1  0  0  0  0
  3 12  2  0  0  0  0
  4  5  2  0  0  0  0
  4 12  1  0  0  0  0
  5  7  1  0  0  0  0
  6 14  1  0  0  0  0
  7 14  1  0  0  0  0
  8 10  1  0  0  0  0
  8 11  1  0  0  0  0
  9 11  1  0  0  0  0
  9 14  1  0  0  0  0
 10 15  1  0  0  0  0
 11 13  1  0  0  0  0
  1 16  1  0  0  0  0
  2 17  1  0  0  0  0
  3 18  1  0  0  0  0
  4 19  1  0  0  0  0
  6 20  1  0  0  0  0
  6 21  1  0  0  0  0
  6 22  1  0  0  0  0
  7 23  1  0  0  0  0
  7 24  1  0  0  0  0
  8 25  1  0  0  0  0
  8 26  1  0  0  0  0
  9 27  1  0  0  0  0
  9 28  1  0  0  0  0
 10 29  1  0  0  0  0
 10 30  1  0  0  0  0
 11 31  1  0  0  0  0
 13 32  1  0  0  0  0
 13 33  1  0  0  0  0
 15 34  1  0  0  0  0
M  END
> <FRED Chemgauss4 score>
-6.860012

$$$$
C55166662	P83101249
  -OEChem-05122015073D

 26 26  0     0  0  0  0  0  0999 V2000
   54.3363  156.6767   -4.2889 C   0  0  0  0  0  0  0  0  0  0  0  0
   54.5182  155.3247   -5.8688 C   0  0  0  0  0  0  0  0  0  0  0  0
   54.7032  157.5646   -3.1557 C   0  0  0  0  0  0  0  0  0  0  0  0
   57.2679  161.6805   -3.7000 C   0  0  0  0  0  0  0  0  0  0  0  0
   56.4797  158.9929   -2.1760 C   0  0  0  0  0  0  0  0  0  0  0  0
   55.6238  160.2311   -1.9899 C   0  0  0  0  0  0  0  0  0  0  0  0
   55.2592  155.9460   -4.9810 N   0  0  0  0  0  0  0  0  0  0  0  0
   53.0708  156.5464   -4.6927 N   0  0  0  0  0  0  0  0  0  0  0  0
   53.2149  155.6765   -5.7040 N   0  0  0  0  0  0  0  0  0  0  0  0
   54.8507  154.4537   -6.8442 N   0  0  0  0  0  0  0  0  0  0  0  0
   55.9709  158.1321   -3.2087 N   0  0  0  0  0  0  0  0  0  0  0  0
   53.9003  157.7339   -2.2418 O   0  0  0  0  0  0  0  0  0  0  0  0
   55.1613  160.3922   -4.5576 O   0  0  0  0  0  0  0  0  0  0  0  0
   54.8352  162.4476   -3.1291 O   0  0  0  0  0  0  0  0  0  0  0  0
   55.5664  161.2321   -3.4433 S   0  0  0  0  0  0  0  0  0  0  0  0
   57.3279  162.3087   -4.5902 H   0  0  0  0  0  0  0  0  0  0  0  0
   57.6161  162.2269   -2.8222 H   0  0  0  0  0  0  0  0  0  0  0  0
   57.8479  160.7667   -3.8370 H   0  0  0  0  0  0  0  0  0  0  0  0
   57.5097  159.2523   -2.4400 H   0  0  0  0  0  0  0  0  0  0  0  0
   56.4977  158.4057   -1.2529 H   0  0  0  0  0  0  0  0  0  0  0  0
   56.0368  160.8641   -1.1988 H   0  0  0  0  0  0  0  0  0  0  0  0
   54.5906  159.9765   -1.7353 H   0  0  0  0  0  0  0  0  0  0  0  0
   52.3976  155.3770   -6.2223 H   0  0  0  0  0  0  0  0  0  0  0  0
   55.8295  154.1936   -7.0378 H   0  0  0  0  0  0  0  0  0  0  0  0
   54.1540  154.0778   -7.5051 H   0  0  0  0  0  0  0  0  0  0  0  0
   56.6010  157.8911   -3.9715 H   0  0  0  0  0  0  0  0  0  0  0  0
  1  3  1  0  0  0  0
  1  7  1  0  0  0  0
  1  8  2  0  0  0  0
  2  7  2  0  0  0  0
  2  9  1  0  0  0  0
  2 10  1  0  0  0  0
  3 11  1  0  0  0  0
  3 12  2  0  0  0  0
  4 15  1  0  0  0  0
  5  6  1  0  0  0  0
  5 11  1  0  0  0  0
  6 15  1  0  0  0  0
  8  9  1  0  0  0  0
 13 15  2  0  0  0  0
 14 15  2  0  0  0  0
  4 16  1  0  0  0  0
  4 17  1  0  0  0  0
  4 18  1  0  0  0  0
  5 19  1  0  0  0  0
  5 20  1  0  0  0  0
  6 21  1  0  0  0  0
  6 22  1  0  0  0  0
  9 23  1  0  0  0  0
 10 24  1  0  0  0  0
 10 25  1  0  0  0  0
 11 26  1  0  0  0  0
M  END
> <FRED Chemgauss4 score>
-6.856272

$$$$
C82467311	P128880080
  -OEChem-05122015073D

 29 28  0     1  0  0  0  0  0999 V2000
   54.7817  152.2553   -8.4322 C   0  0  0  0  0  0  0  0  0  0  0  0
   53.9838  156.0419   -3.2925 C   0  0  0  0  0  0  0  0  0  0  0  0
   56.1446  157.2998   -5.0636 C   0  0  0  0  0  0  0  0  0  0  0  0
   55.7310  153.2880   -7.8499 C   0  0  0  0  0  0  0  0  0  0  0  0
   55.1215  155.3831   -4.0381 C   0  0  0  0  0  0  0  0  0  0  0  0
   55.0436  154.2175   -6.8515 C   0  0  0  0  0  0  0  0  0  0  0  0
   56.0328  155.2164   -6.2549 C   0  0  0  0  0  0  0  0  0  0  0  0
   52.7580  155.5106   -3.6318 N   0  0  0  0  0  0  0  0  0  0  0  0
   53.2741  151.9108  -10.2451 N   0  0  0  0  0  0  0  0  0  0  0  0
   54.1716  152.7237   -9.5838 N   0  0  0  0  0  0  0  0  0  0  0  0
   55.3587  156.0873   -5.2994 N   0  0  2  0  0  0  0  0  0  0  0  0
   54.5965  151.1519   -7.9251 O   0  0  0  0  0  0  0  0  0  0  0  0
   54.1357  156.9188   -2.4464 O   0  0  0  0  0  0  0  0  0  0  0  0
   56.3200  157.8232   -6.0071 H   0  0  0  0  0  0  0  0  0  0  0  0
   57.1099  157.0439   -4.6184 H   0  0  0  0  0  0  0  0  0  0  0  0
   55.6115  157.9695   -4.3835 H   0  0  0  0  0  0  0  0  0  0  0  0
   56.5559  152.7569   -7.3598 H   0  0  0  0  0  0  0  0  0  0  0  0
   56.1503  153.8722   -8.6778 H   0  0  0  0  0  0  0  0  0  0  0  0
   54.8843  154.3415   -4.2711 H   0  0  0  0  0  0  0  0  0  0  0  0
   56.0316  155.4325   -3.4342 H   0  0  0  0  0  0  0  0  0  0  0  0
   54.2271  154.7542   -7.3517 H   0  0  0  0  0  0  0  0  0  0  0  0
   54.5851  153.6213   -6.0517 H   0  0  0  0  0  0  0  0  0  0  0  0
   56.4730  155.8301   -7.0480 H   0  0  0  0  0  0  0  0  0  0  0  0
   56.8487  154.6870   -5.7506 H   0  0  0  0  0  0  0  0  0  0  0  0
   52.6848  154.7612   -4.3118 H   0  0  0  0  0  0  0  0  0  0  0  0
   51.8901  155.8401   -3.2213 H   0  0  0  0  0  0  0  0  0  0  0  0
   52.5650  152.5209  -10.6495 H   0  0  0  0  0  0  0  0  0  0  0  0
   52.7968  151.3578   -9.5344 H   0  0  0  0  0  0  0  0  0  0  0  0
   54.3818  153.6522   -9.9366 H   0  0  0  0  0  0  0  0  0  0  0  0
  1  4  1  0  0  0  0
  1 10  1  0  0  0  0
  1 12  2  0  0  0  0
  2  5  1  0  0  0  0
  2  8  1  0  0  0  0
  2 13  2  0  0  0  0
  3 11  1  0  0  0  0
  4  6  1  0  0  0  0
  5 11  1  0  0  0  0
  6  7  1  0  0  0  0
  7 11  1  0  0  0  0
  9 10  1  0  0  0  0
  3 14  1  0  0  0  0
  3 15  1  0  0  0  0
  3 16  1  0  0  0  0
  4 17  1  0  0  0  0
  4 18  1  0  0  0  0
  5 19  1  0  0  0  0
  5 20  1  0  0  0  0
  6 21  1  0  0  0  0
  6 22  1  0  0  0  0
  7 23  1  0  0  0  0
  7 24  1  0  0  0  0
  8 25  1  0  0  0  0
  8 26  1  0  0  0  0
  9 27  1  0  0  0  0
  9 28  1  0  0  0  0
 10 29  1  0  0  0  0
M  END
> <FRED Chemgauss4 score>
-6.855389

$$$$
C69506335	P122369156
  -OEChem-05122015073D

 38 39  0     1  0  0  0  0  0999 V2000
   56.3206  157.8590   -4.7347 C   0  0  0  0  0  0  0  0  0  0  0  0
   55.0195  158.4973   -2.9272 C   0  0  0  0  0  0  0  0  0  0  0  0
   58.6221  161.1800   -1.0641 C   0  0  0  0  0  0  0  0  0  0  0  0
   58.0699  160.6929   -2.4059 C   0  0  0  0  0  0  0  0  0  0  0  0
   57.6359  160.7130    0.0117 C   0  0  0  0  0  0  0  0  0  0  0  0
   54.9902  157.5502   -4.1006 C   0  0  2  0  0  0  0  0  0  0  0  0
   56.6802  160.1442   -2.0934 C   0  0  2  0  0  0  0  0  0  0  0  0
   56.7980  159.6310   -0.6601 C   0  0  1  0  0  0  0  0  0  0  0  0
   58.1035  156.4686   -5.7314 C   0  0  0  0  0  0  0  0  0  0  0  0
   56.7898  157.1831   -5.9771 C   0  0  0  0  0  0  0  0  0  0  0  0
   54.8842  156.1093   -3.6440 C   0  0  0  0  0  0  0  0  0  0  0  0
   53.4406  155.6427   -3.4742 C   0  0  0  0  0  0  0  0  0  0  0  0
   57.0066  158.7600   -4.1033 N   0  0  0  0  0  0  0  0  0  0  0  0
   56.2474  159.1489   -3.0312 N   0  0  0  0  0  0  0  0  0  0  0  0
   52.7209  156.4348   -2.5156 N   0  0  0  0  0  0  0  0  0  0  0  0
   54.1456  158.6309   -2.0870 O   0  0  0  0  0  0  0  0  0  0  0  0
   57.4791  158.3819   -0.5954 O   0  0  0  0  0  0  0  0  0  0  0  0
   59.6137  160.7528   -0.8717 H   0  0  0  0  0  0  0  0  0  0  0  0
   58.7313  162.2707   -1.0611 H   0  0  0  0  0  0  0  0  0  0  0  0
   57.9837  161.5475   -3.0897 H   0  0  0  0  0  0  0  0  0  0  0  0
   58.7315  159.9564   -2.8757 H   0  0  0  0  0  0  0  0  0  0  0  0
   58.1723  160.3187    0.8826 H   0  0  0  0  0  0  0  0  0  0  0  0
   57.0110  161.5353    0.3745 H   0  0  0  0  0  0  0  0  0  0  0  0
   54.1822  157.8299   -4.7827 H   0  0  0  0  0  0  0  0  0  0  0  0
   55.9058  160.9554   -2.1522 H   0  0  0  0  0  0  0  0  0  0  0  0
   55.8406  159.5455   -0.1899 H   0  0  0  0  0  0  0  0  0  0  0  0
   58.8717  157.1780   -5.4084 H   0  0  0  0  0  0  0  0  0  0  0  0
   58.4552  155.9710   -6.6415 H   0  0  0  0  0  0  0  0  0  0  0  0
   57.9957  155.7031   -4.9558 H   0  0  0  0  0  0  0  0  0  0  0  0
   56.0214  156.4737   -6.3002 H   0  0  0  0  0  0  0  0  0  0  0  0
   56.9083  157.9424   -6.7564 H   0  0  0  0  0  0  0  0  0  0  0  0
   55.4017  156.0009   -2.6812 H   0  0  0  0  0  0  0  0  0  0  0  0
   55.4033  155.4581   -4.3607 H   0  0  0  0  0  0  0  0  0  0  0  0
   52.9025  155.7231   -4.4240 H   0  0  0  0  0  0  0  0  0  0  0  0
   53.3987  154.5994   -3.1460 H   0  0  0  0  0  0  0  0  0  0  0  0
   51.9238  156.0349   -2.0452 H   0  0  0  0  0  0  0  0  0  0  0  0
   52.8874  157.4284   -2.4733 H   0  0  0  0  0  0  0  0  0  0  0  0
   57.6105  158.1735    0.3462 H   0  0  0  0  0  0  0  0  0  0  0  0
  1  6  1  0  0  0  0
  1 10  1  0  0  0  0
  1 13  2  0  0  0  0
  2  6  1  0  0  0  0
  2 14  1  0  0  0  0
  2 16  2  0  0  0  0
  3  4  1  0  0  0  0
  3  5  1  0  0  0  0
  4  7  1  0  0  0  0
  5  8  1  0  0  0  0
  6 11  1  0  0  0  0
  7  8  1  0  0  0  0
  7 14  1  0  0  0  0
  8 17  1  0  0  0  0
  9 10  1  0  0  0  0
 11 12  1  0  0  0  0
 12 15  1  0  0  0  0
 13 14  1  0  0  0  0
  3 18  1  0  0  0  0
  3 19  1  0  0  0  0
  4 20  1  0  0  0  0
  4 21  1  0  0  0  0
  5 22  1  0  0  0  0
  5 23  1  0  0  0  0
  6 24  1  0  0  0  0
  7 25  1  0  0  0  0
  8 26  1  0  0  0  0
  9 27  1  0  0  0  0
  9 28  1  0  0  0  0
  9 29  1  0  0  0  0
 10 30  1  0  0  0  0
 10 31  1  0  0  0  0
 11 32  1  0  0  0  0
 11 33  1  0  0  0  0
 12 34  1  0  0  0  0
 12 35  1  0  0  0  0
 15 36  1  0  0  0  0
 15 37  1  0  0  0  0
 17 38  1  0  0  0  0
M  END
> <FRED Chemgauss4 score>
-6.853004

$$$$
C82515853	P128952133
  -OEChem-05122015073D

 28 29  0     1  0  0  0  0  0999 V2000
   54.6882  158.3874   -3.4979 C   0  0  0  0  0  0  0  0  0  0  0  0
   53.9200  157.7293   -5.3238 C   0  0  0  0  0  0  0  0  0  0  0  0
   57.1346  160.0080    0.7184 C   0  0  0  0  0  0  0  0  0  0  0  0
   55.6408  158.9160   -2.4878 C   0  0  0  0  0  0  0  0  0  0  0  0
   57.7841  161.1742    0.0044 C   0  0  0  0  0  0  0  0  0  0  0  0
   57.5590  161.0719   -1.5020 C   0  0  0  0  0  0  0  0  0  0  0  0
   58.2966  158.6767   -1.0048 C   0  0  0  0  0  0  0  0  0  0  0  0
   57.9607  159.7056   -2.0849 C   0  0  1  0  0  0  0  0  0  0  0  0
   55.0324  158.1952   -4.8053 N   0  0  0  0  0  0  0  0  0  0  0  0
   53.4328  158.0697   -3.1748 N   0  0  0  0  0  0  0  0  0  0  0  0
   52.9633  157.6516   -4.3602 N   0  0  0  0  0  0  0  0  0  0  0  0
   57.3988  158.7867    0.1267 N   0  0  0  0  0  0  0  0  0  0  0  0
   53.6234  157.3479   -6.5835 N   0  0  0  0  0  0  0  0  0  0  0  0
   56.9147  159.2072   -2.9512 N   0  0  0  0  0  0  0  0  0  0  0  0
   56.4676  160.1488    1.7401 O   0  0  0  0  0  0  0  0  0  0  0  0
   55.2706  159.0454   -1.3239 O   0  0  0  0  0  0  0  0  0  0  0  0
   57.3399  162.0784    0.3873 H   0  0  0  0  0  0  0  0  0  0  0  0
   58.8408  161.1631    0.2119 H   0  0  0  0  0  0  0  0  0  0  0  0
   56.5010  161.2843   -1.7277 H   0  0  0  0  0  0  0  0  0  0  0  0
   58.1446  161.8579   -2.0084 H   0  0  0  0  0  0  0  0  0  0  0  0
   58.2339  157.6619   -1.3849 H   0  0  0  0  0  0  0  0  0  0  0  0
   59.2990  158.8533   -0.6231 H   0  0  0  0  0  0  0  0  0  0  0  0
   58.8326  159.8332   -2.7469 H   0  0  0  0  0  0  0  0  0  0  0  0
   52.0034  157.3358   -4.4312 H   0  0  0  0  0  0  0  0  0  0  0  0
   56.9671  157.9774    0.4832 H   0  0  0  0  0  0  0  0  0  0  0  0
   54.3003  157.4330   -7.3567 H   0  0  0  0  0  0  0  0  0  0  0  0
   52.6772  157.0414   -6.8557 H   0  0  0  0  0  0  0  0  0  0  0  0
   57.1655  159.0145   -3.9160 H   0  0  0  0  0  0  0  0  0  0  0  0
  1  4  1  0  0  0  0
  1  9  1  0  0  0  0
  1 10  2  0  0  0  0
  2  9  2  0  0  0  0
  2 11  1  0  0  0  0
  2 13  1  0  0  0  0
  3  5  1  0  0  0  0
  3 12  1  0  0  0  0
  3 15  2  0  0  0  0
  4 14  1  0  0  0  0
  4 16  2  0  0  0  0
  5  6  1  0  0  0  0
  6  8  1  0  0  0  0
  7  8  1  0  0  0  0
  7 12  1  0  0  0  0
  8 14  1  0  0  0  0
 10 11  1  0  0  0  0
  5 17  1  0  0  0  0
  5 18  1  0  0  0  0
  6 19  1  0  0  0  0
  6 20  1  0  0  0  0
  7 21  1  0  0  0  0
  7 22  1  0  0  0  0
  8 23  1  0  0  0  0
 11 24  1  0  0  0  0
 12 25  1  0  0  0  0
 13 26  1  0  0  0  0
 13 27  1  0  0  0  0
 14 28  1  0  0  0  0
M  END
> <FRED Chemgauss4 score>
-6.844381

$$$$
C85419065	P133674711
  -OEChem-05122015073D

 24 24  0     1  0  0  0  0  0999 V2000
   53.0911  155.4968   -3.5350 C   0  0  0  0  0  0  0  0  0  0  0  0
   55.3536  155.1144   -6.3211 C   0  0  0  0  0  0  0  0  0  0  0  0
   54.4936  154.6169   -5.3745 C   0  0  0  0  0  0  0  0  0  0  0  0
   58.6491  155.3366   -6.5820 C   0  0  0  0  0  0  0  0  0  0  0  0
   57.6318  154.3050   -7.0685 C   0  0  0  0  0  0  0  0  0  0  0  0
   59.9440  155.3336   -7.3850 C   0  0  0  0  0  0  0  0  0  0  0  0
   53.1727  155.1166   -4.9716 C   0  0  2  0  0  0  0  0  0  0  0  0
   53.0559  155.7823   -2.4107 N   0  0  0  0  0  0  0  0  0  0  0  0
   55.0407  153.5059   -4.7952 N   0  0  0  0  0  0  0  0  0  0  0  0
   56.2263  153.2948   -5.3564 N   0  0  0  0  0  0  0  0  0  0  0  0
   56.4121  154.2604   -6.2709 N   0  0  0  0  0  0  0  0  0  0  0  0
   52.7185  156.2470   -5.7774 N   0  0  0  0  0  0  0  0  0  0  0  0
   60.8050  156.3388   -6.8658 O   0  0  0  0  0  0  0  0  0  0  0  0
   55.3074  155.9589   -6.9941 H   0  0  0  0  0  0  0  0  0  0  0  0
   58.8863  155.1321   -5.5302 H   0  0  0  0  0  0  0  0  0  0  0  0
   58.2171  156.3451   -6.5952 H   0  0  0  0  0  0  0  0  0  0  0  0
   57.3561  154.4921   -8.1129 H   0  0  0  0  0  0  0  0  0  0  0  0
   58.0712  153.3006   -7.0312 H   0  0  0  0  0  0  0  0  0  0  0  0
   59.7585  155.5550   -8.4402 H   0  0  0  0  0  0  0  0  0  0  0  0
   60.4511  154.3669   -7.3050 H   0  0  0  0  0  0  0  0  0  0  0  0
   52.3803  154.3540   -5.1374 H   0  0  0  0  0  0  0  0  0  0  0  0
   52.0472  156.8670   -5.3790 H   0  0  0  0  0  0  0  0  0  0  0  0
   52.9330  156.2448   -6.7509 H   0  0  0  0  0  0  0  0  0  0  0  0
   61.6178  156.3119   -7.3959 H   0  0  0  0  0  0  0  0  0  0  0  0
  1  7  1  0  0  0  0
  1  8  3  0  0  0  0
  2  3  2  0  0  0  0
  2 11  1  0  0  0  0
  3  7  1  0  0  0  0
  3  9  1  0  0  0  0
  4  5  1  0  0  0  0
  4  6  1  0  0  0  0
  5 11  1  0  0  0  0
  6 13  1  0  0  0  0
  7 12  1  0  0  0  0
  9 10  2  0  0  0  0
 10 11  1  0  0  0  0
  2 14  1  0  0  0  0
  4 15  1  0  0  0  0
  4 16  1  0  0  0  0
  5 17  1  0  0  0  0
  5 18  1  0  0  0  0
  6 19  1  0  0  0  0
  6 20  1  0  0  0  0
  7 21  1  0  0  0  0
 12 22  1  0  0  0  0
 12 23  1  0  0  0  0
 13 24  1  0  0  0  0
M  END
> <FRED Chemgauss4 score>
-6.843714

$$$$
C88000630	P137646920
  -OEChem-05122015073D

 29 30  0     1  0  0  0  0  0999 V2000
   57.1567  153.1871   -7.3739 C   0  0  0  0  0  0  0  0  0  0  0  0
   55.9223  152.6753   -7.7616 C   0  0  0  0  0  0  0  0  0  0  0  0
   57.1967  154.3744   -6.6424 C   0  0  0  0  0  0  0  0  0  0  0  0
   55.9716  154.9832   -6.3414 C   0  0  0  0  0  0  0  0  0  0  0  0
   54.8137  154.3637   -6.7910 C   0  0  0  0  0  0  0  0  0  0  0  0
   54.3552  156.2109   -5.6841 C   0  0  0  0  0  0  0  0  0  0  0  0
   58.5116  154.9373   -6.2189 C   0  0  0  0  0  0  0  0  0  0  0  0
   56.1990  158.6798   -2.9715 C   0  0  0  0  0  0  0  0  0  0  0  0
   54.3336  158.3721   -4.3673 C   0  0  0  0  0  0  0  0  0  0  0  0
   53.5211  157.2679   -5.0824 C   0  0  1  0  0  0  0  0  0  0  0  0
   54.7123  153.2250   -7.4962 N   0  0  0  0  0  0  0  0  0  0  0  0
   55.6688  156.1331   -5.6535 N   0  0  0  0  0  0  0  0  0  0  0  0
   53.7920  155.1626   -6.3613 N   0  0  0  0  0  0  0  0  0  0  0  0
   52.6277  157.8886   -6.0583 N   0  0  0  0  0  0  0  0  0  0  0  0
   55.1350  157.8112   -3.3325 O   0  0  0  0  0  0  0  0  0  0  0  0
   58.0695  152.6636   -7.6409 H   0  0  0  0  0  0  0  0  0  0  0  0
   55.8771  151.7510   -8.3318 H   0  0  0  0  0  0  0  0  0  0  0  0
   58.8998  155.6187   -6.9856 H   0  0  0  0  0  0  0  0  0  0  0  0
   58.4226  155.4899   -5.2748 H   0  0  0  0  0  0  0  0  0  0  0  0
   59.2502  154.1422   -6.0533 H   0  0  0  0  0  0  0  0  0  0  0  0
   56.7923  158.2199   -2.1774 H   0  0  0  0  0  0  0  0  0  0  0  0
   55.7912  159.6346   -2.6299 H   0  0  0  0  0  0  0  0  0  0  0  0
   56.8325  158.8482   -3.8455 H   0  0  0  0  0  0  0  0  0  0  0  0
   55.0070  158.8625   -5.0788 H   0  0  0  0  0  0  0  0  0  0  0  0
   53.6797  159.1305   -3.9229 H   0  0  0  0  0  0  0  0  0  0  0  0
   52.8213  156.8494   -4.3279 H   0  0  0  0  0  0  0  0  0  0  0  0
   52.8050  155.0059   -6.5165 H   0  0  0  0  0  0  0  0  0  0  0  0
   52.2935  158.8079   -5.8684 H   0  0  0  0  0  0  0  0  0  0  0  0
   52.2274  157.3076   -6.7619 H   0  0  0  0  0  0  0  0  0  0  0  0
  1  2  2  0  0  0  0
  1  3  1  0  0  0  0
  2 11  1  0  0  0  0
  3  4  2  0  0  0  0
  3  7  1  0  0  0  0
  4  5  1  0  0  0  0
  4 12  1  0  0  0  0
  5 11  2  0  0  0  0
  5 13  1  0  0  0  0
  6 10  1  0  0  0  0
  6 12  2  0  0  0  0
  6 13  1  0  0  0  0
  8 15  1  0  0  0  0
  9 10  1  0  0  0  0
  9 15  1  0  0  0  0
 10 14  1  0  0  0  0
  1 16  1  0  0  0  0
  2 17  1  0  0  0  0
  7 18  1  0  0  0  0
  7 19  1  0  0  0  0
  7 20  1  0  0  0  0
  8 21  1  0  0  0  0
  8 22  1  0  0  0  0
  8 23  1  0  0  0  0
  9 24  1  0  0  0  0
  9 25  1  0  0  0  0
 10 26  1  0  0  0  0
 13 27  1  0  0  0  0
 14 28  1  0  0  0  0
 14 29  1  0  0  0  0
M  END
> <FRED Chemgauss4 score>
-6.840590

$$$$
C04334611	P61785085
  -OEChem-05122015073D

 23 23  0     1  0  0  0  0  0999 V2000
   53.5990  156.0888   -2.9198 C   0  0  0  0  0  0  0  0  0  0  0  0
   54.6018  157.2032   -3.2695 C   0  0  1  0  0  0  0  0  0  0  0  0
   53.1325  155.2920   -4.1495 C   0  0  2  0  0  0  0  0  0  0  0  0
   54.2820  157.9006   -4.5939 C   0  0  1  0  0  0  0  0  0  0  0  0
   54.1023  155.4548   -5.3241 C   0  0  2  0  0  0  0  0  0  0  0  0
   54.2338  156.9152   -5.7661 C   0  0  0  0  0  0  0  0  0  0  0  0
   54.2457  155.1754   -2.0284 O   0  0  0  0  0  0  0  0  0  0  0  0
   54.6177  158.1792   -2.2281 O   0  0  0  0  0  0  0  0  0  0  0  0
   51.8486  155.7734   -4.5566 O   0  0  0  0  0  0  0  0  0  0  0  0
   53.0328  158.5882   -4.5034 O   0  0  0  0  0  0  0  0  0  0  0  0
   53.6480  154.6897   -6.4395 O   0  0  0  0  0  0  0  0  0  0  0  0
   55.4091  157.0244   -6.4566 F   0  0  0  0  0  0  0  0  0  0  0  0
   52.7410  156.5161   -2.4113 H   0  0  0  0  0  0  0  0  0  0  0  0
   55.6236  156.7906   -3.3259 H   0  0  0  0  0  0  0  0  0  0  0  0
   53.0228  154.2370   -3.9145 H   0  0  0  0  0  0  0  0  0  0  0  0
   55.0489  158.6592   -4.8066 H   0  0  0  0  0  0  0  0  0  0  0  0
   55.0916  155.0721   -5.0547 H   0  0  0  0  0  0  0  0  0  0  0  0
   53.4441  157.1869   -6.4898 H   0  0  0  0  0  0  0  0  0  0  0  0
   53.5974  154.4841   -1.8222 H   0  0  0  0  0  0  0  0  0  0  0  0
   55.2601  158.8537   -2.4952 H   0  0  0  0  0  0  0  0  0  0  0  0
   51.2532  155.6366   -3.8041 H   0  0  0  0  0  0  0  0  0  0  0  0
   52.8855  159.0070   -5.3654 H   0  0  0  0  0  0  0  0  0  0  0  0
   53.6169  153.7662   -6.1457 H   0  0  0  0  0  0  0  0  0  0  0  0
  1  2  1  0  0  0  0
  1  3  1  0  0  0  0
  1  7  1  0  0  0  0
  2  4  1  0  0  0  0
  2  8  1  0  0  0  0
  3  5  1  0  0  0  0
  3  9  1  0  0  0  0
  4  6  1  0  0  0  0
  4 10  1  0  0  0  0
  5  6  1  0  0  0  0
  5 11  1  0  0  0  0
  6 12  1  0  0  0  0
  1 13  1  0  0  0  0
  2 14  1  0  0  0  0
  3 15  1  0  0  0  0
  4 16  1  0  0  0  0
  5 17  1  0  0  0  0
  6 18  1  0  0  0  0
  7 19  1  0  0  0  0
  8 20  1  0  0  0  0
  9 21  1  0  0  0  0
 10 22  1  0  0  0  0
 11 23  1  0  0  0  0
M  END
> <FRED Chemgauss4 score>
-6.840401

$$$$
C91496157	P143180366
  -OEChem-05122015073D

 34 35  0     0  0  0  0  0  0999 V2000
   54.2433  154.6924   -5.7994 C   0  0  0  0  0  0  0  0  0  0  0  0
   58.0213  158.9783   -5.6539 C   0  0  0  0  0  0  0  0  0  0  0  0
   53.6794  155.6695   -6.6197 C   0  0  0  0  0  0  0  0  0  0  0  0
   57.5660  157.9427   -4.8455 C   0  0  0  0  0  0  0  0  0  0  0  0
   54.7323  155.0369   -4.5392 C   0  0  0  0  0  0  0  0  0  0  0  0
   54.0935  157.3356   -4.9197 C   0  0  0  0  0  0  0  0  0  0  0  0
   58.1525  160.2350   -5.0855 C   0  0  0  0  0  0  0  0  0  0  0  0
   53.6045  156.9911   -6.1799 C   0  0  0  0  0  0  0  0  0  0  0  0
   57.2603  158.1919   -3.5122 C   0  0  0  0  0  0  0  0  0  0  0  0
   54.6574  156.3585   -4.0994 C   0  0  0  0  0  0  0  0  0  0  0  0
   57.4258  159.4838   -3.0396 C   0  0  0  0  0  0  0  0  0  0  0  0
   57.1163  159.8295   -1.6172 C   0  0  0  0  0  0  0  0  0  0  0  0
   53.0014  158.0353   -7.0576 C   0  0  0  0  0  0  0  0  0  0  0  0
   57.8655  160.5155   -3.7945 N   0  0  0  0  0  0  0  0  0  0  0  0
   56.8150  157.1861   -2.7206 N   0  5  0  0  0  0  0  0  0  0  0  0
   51.5345  158.1980   -6.8602 N   0  3  0  0  0  0  0  0  0  0  0  0
   54.4230  157.9150   -2.0879 O   0  0  0  0  0  0  0  0  0  0  0  0
   55.0719  155.5787   -1.7042 O   0  0  0  0  0  0  0  0  0  0  0  0
   55.2708  156.7892   -2.5228 S   0  0  0  0  0  0  0  0  0  0  0  0
   54.3010  153.6632   -6.1414 H   0  0  0  0  0  0  0  0  0  0  0  0
   58.2675  158.8072   -6.6953 H   0  0  0  0  0  0  0  0  0  0  0  0
   53.3000  155.3917   -7.5996 H   0  0  0  0  0  0  0  0  0  0  0  0
   57.4572  156.9483   -5.2727 H   0  0  0  0  0  0  0  0  0  0  0  0
   55.1700  154.2675   -3.9088 H   0  0  0  0  0  0  0  0  0  0  0  0
   54.0342  158.3662   -4.5780 H   0  0  0  0  0  0  0  0  0  0  0  0
   58.5045  161.0766   -5.6730 H   0  0  0  0  0  0  0  0  0  0  0  0
   58.0071  159.6957   -0.9941 H   0  0  0  0  0  0  0  0  0  0  0  0
   56.7781  160.8683   -1.5291 H   0  0  0  0  0  0  0  0  0  0  0  0
   56.3133  159.1955   -1.2238 H   0  0  0  0  0  0  0  0  0  0  0  0
   53.4477  159.0227   -6.8774 H   0  0  0  0  0  0  0  0  0  0  0  0
   53.1449  157.8016   -8.1214 H   0  0  0  0  0  0  0  0  0  0  0  0
   51.3346  158.5745   -5.9296 H   0  0  0  0  0  0  0  0  0  0  0  0
   51.0560  157.2974   -6.9512 H   0  0  0  0  0  0  0  0  0  0  0  0
   51.1451  158.8397   -7.5563 H   0  0  0  0  0  0  0  0  0  0  0  0
  1  3  1  0  0  0  0
  1  5  2  0  0  0  0
  2  4  1  0  0  0  0
  2  7  2  0  0  0  0
  3  8  2  0  0  0  0
  4  9  2  0  0  0  0
  5 10  1  0  0  0  0
  6  8  1  0  0  0  0
  6 10  2  0  0  0  0
  7 14  1  0  0  0  0
  8 13  1  0  0  0  0
  9 11  1  0  0  0  0
  9 15  1  0  0  0  0
 10 19  1  0  0  0  0
 11 12  1  0  0  0  0
 11 14  2  0  0  0  0
 13 16  1  0  0  0  0
 15 19  1  0  0  0  0
 17 19  2  0  0  0  0
 18 19  2  0  0  0  0
  1 20  1  0  0  0  0
  2 21  1  0  0  0  0
  3 22  1  0  0  0  0
  4 23  1  0  0  0  0
  5 24  1  0  0  0  0
  6 25  1  0  0  0  0
  7 26  1  0  0  0  0
 12 27  1  0  0  0  0
 12 28  1  0  0  0  0
 12 29  1  0  0  0  0
 13 30  1  0  0  0  0
 13 31  1  0  0  0  0
 16 32  1  0  0  0  0
 16 33  1  0  0  0  0
 16 34  1  0  0  0  0
M  CHG  2  15  -1  16   1
M  END
> <FRED Chemgauss4 score>
-6.837599

$$$$
C85420816	P133703560
  -OEChem-05122015073D

 23 23  0     0  0  0  0  0  0999 V2000
   54.7555  156.1298   -2.4233 C   0  0  0  0  0  0  0  0  0  0  0  0
   54.1426  155.8844   -4.4035 C   0  0  0  0  0  0  0  0  0  0  0  0
   56.3482  155.6280   -6.1671 C   0  0  0  0  0  0  0  0  0  0  0  0
   54.9233  153.6198   -6.6928 C   0  0  0  0  0  0  0  0  0  0  0  0
   54.9774  155.1452   -6.6356 C   0  0  0  0  0  0  0  0  0  0  0  0
   55.2042  155.7251   -3.6479 N   0  0  0  0  0  0  0  0  0  0  0  0
   53.4830  156.5295   -2.3737 N   0  0  0  0  0  0  0  0  0  0  0  0
   53.1141  156.3627   -3.6529 N   0  0  0  0  0  0  0  0  0  0  0  0
   55.6179  156.0980   -1.3747 N   0  0  0  0  0  0  0  0  0  0  0  0
   53.9464  155.6504   -5.7525 N   0  0  0  0  0  0  0  0  0  0  0  0
   56.2459  156.9739   -5.7156 O   0  0  0  0  0  0  0  0  0  0  0  0
   53.8559  153.2169   -7.5435 O   0  0  0  0  0  0  0  0  0  0  0  0
   57.0698  155.6067   -6.9905 H   0  0  0  0  0  0  0  0  0  0  0  0
   56.7303  155.0135   -5.3445 H   0  0  0  0  0  0  0  0  0  0  0  0
   54.7601  153.1856   -5.7004 H   0  0  0  0  0  0  0  0  0  0  0  0
   55.8515  153.2143   -7.1083 H   0  0  0  0  0  0  0  0  0  0  0  0
   54.7444  155.5662   -7.6208 H   0  0  0  0  0  0  0  0  0  0  0  0
   52.1681  156.5932   -3.9316 H   0  0  0  0  0  0  0  0  0  0  0  0
   56.5734  155.7357   -1.4719 H   0  0  0  0  0  0  0  0  0  0  0  0
   55.3211  156.3458   -0.4238 H   0  0  0  0  0  0  0  0  0  0  0  0
   53.0358  155.8417   -6.1497 H   0  0  0  0  0  0  0  0  0  0  0  0
   57.1340  157.2393   -5.4288 H   0  0  0  0  0  0  0  0  0  0  0  0
   53.8574  152.2466   -7.5513 H   0  0  0  0  0  0  0  0  0  0  0  0
  1  6  1  0  0  0  0
  1  7  2  0  0  0  0
  1  9  1  0  0  0  0
  2  6  2  0  0  0  0
  2  8  1  0  0  0  0
  2 10  1  0  0  0  0
  3  5  1  0  0  0  0
  3 11  1  0  0  0  0
  4  5  1  0  0  0  0
  4 12  1  0  0  0  0
  5 10  1  0  0  0  0
  7  8  1  0  0  0  0
  3 13  1  0  0  0  0
  3 14  1  0  0  0  0
  4 15  1  0  0  0  0
  4 16  1  0  0  0  0
  5 17  1  0  0  0  0
  8 18  1  0  0  0  0
  9 19  1  0  0  0  0
  9 20  1  0  0  0  0
 10 21  1  0  0  0  0
 11 22  1  0  0  0  0
 12 23  1  0  0  0  0
M  END
> <FRED Chemgauss4 score>
-6.837136

$$$$
C97646842	P154797472
  -OEChem-05122015073D

 42 43  0     1  0  0  0  0  0999 V2000
   55.3544  159.0065   -4.7811 C   0  0  0  0  0  0  0  0  0  0  0  0
   53.8076  157.7384   -3.4942 C   0  0  0  0  0  0  0  0  0  0  0  0
   54.8119  159.5684   -2.5347 C   0  0  0  0  0  0  0  0  0  0  0  0
   54.4785  157.9303   -4.6912 C   0  0  0  0  0  0  0  0  0  0  0  0
   55.5300  159.8460   -3.6867 C   0  0  0  0  0  0  0  0  0  0  0  0
   55.6139  154.2783   -5.5403 C   0  0  0  0  0  0  0  0  0  0  0  0
   55.3504  154.8892   -6.9278 C   0  0  0  0  0  0  0  0  0  0  0  0
   56.3193  155.5894   -5.1512 C   0  0  0  0  0  0  0  0  0  0  0  0
   55.5466  156.2975   -6.2992 C   0  0  0  0  0  0  0  0  0  0  0  0
   58.6524  160.1932   -3.4182 C   0  0  0  0  0  0  0  0  0  0  0  0
   57.7988  162.3672   -2.4713 C   0  0  0  0  0  0  0  0  0  0  0  0
   57.7239  156.9374   -6.9098 C   0  0  0  0  0  0  0  0  0  0  0  0
   54.2647  156.9972   -5.8654 C   0  0  2  0  0  0  0  0  0  0  0  0
   57.4624  160.9243   -2.8156 C   0  0  0  0  0  0  0  0  0  0  0  0
   53.9522  158.5325   -2.4098 N   0  0  0  0  0  0  0  0  0  0  0  0
   52.2481  157.7804   -6.7518 N   0  0  0  0  0  0  0  0  0  0  0  0
   53.6580  157.6920   -6.9794 N   0  0  0  0  0  0  0  0  0  0  0  0
   56.3773  160.9030   -3.7453 O   0  0  0  0  0  0  0  0  0  0  0  0
   56.3475  157.2057   -7.0848 O   0  0  0  0  0  0  0  0  0  0  0  0
   55.9010  159.1930   -5.7019 H   0  0  0  0  0  0  0  0  0  0  0  0
   53.1113  156.9154   -3.3653 H   0  0  0  0  0  0  0  0  0  0  0  0
   54.9090  160.1906   -1.6505 H   0  0  0  0  0  0  0  0  0  0  0  0
   54.7023  154.0806   -4.9654 H   0  0  0  0  0  0  0  0  0  0  0  0
   56.2400  153.3825   -5.5285 H   0  0  0  0  0  0  0  0  0  0  0  0
   56.1096  154.6275   -7.6744 H   0  0  0  0  0  0  0  0  0  0  0  0
   54.3629  154.6787   -7.3486 H   0  0  0  0  0  0  0  0  0  0  0  0
   56.1131  155.9441   -4.1372 H   0  0  0  0  0  0  0  0  0  0  0  0
   57.4055  155.5647   -5.2988 H   0  0  0  0  0  0  0  0  0  0  0  0
   59.0081  160.6928   -4.3244 H   0  0  0  0  0  0  0  0  0  0  0  0
   59.4760  160.1471   -2.6977 H   0  0  0  0  0  0  0  0  0  0  0  0
   58.3945  159.1578   -3.6671 H   0  0  0  0  0  0  0  0  0  0  0  0
   58.1342  162.9187   -3.3549 H   0  0  0  0  0  0  0  0  0  0  0  0
   58.5898  162.4041   -1.7146 H   0  0  0  0  0  0  0  0  0  0  0  0
   56.9315  162.8831   -2.0448 H   0  0  0  0  0  0  0  0  0  0  0  0
   58.3113  157.6348   -7.5120 H   0  0  0  0  0  0  0  0  0  0  0  0
   57.9370  155.9091   -7.2124 H   0  0  0  0  0  0  0  0  0  0  0  0
   57.9797  157.0653   -5.8553 H   0  0  0  0  0  0  0  0  0  0  0  0
   53.5391  156.2242   -5.5793 H   0  0  0  0  0  0  0  0  0  0  0  0
   57.1310  160.4009   -1.9127 H   0  0  0  0  0  0  0  0  0  0  0  0
   52.0266  157.3733   -5.8435 H   0  0  0  0  0  0  0  0  0  0  0  0
   51.9800  158.7618   -6.6898 H   0  0  0  0  0  0  0  0  0  0  0  0
   53.8188  157.1732   -7.8460 H   0  0  0  0  0  0  0  0  0  0  0  0
  1  4  2  0  0  0  0
  1  5  1  0  0  0  0
  2  4  1  0  0  0  0
  2 15  2  0  0  0  0
  3  5  2  0  0  0  0
  3 15  1  0  0  0  0
  4 13  1  0  0  0  0
  5 18  1  0  0  0  0
  6  7  1  0  0  0  0
  6  8  1  0  0  0  0
  7  9  1  0  0  0  0
  8  9  1  0  0  0  0
  9 13  1  0  0  0  0
  9 19  1  0  0  0  0
 10 14  1  0  0  0  0
 11 14  1  0  0  0  0
 12 19  1  0  0  0  0
 13 17  1  0  0  0  0
 14 18  1  0  0  0  0
 16 17  1  0  0  0  0
  1 20  1  0  0  0  0
  2 21  1  0  0  0  0
  3 22  1  0  0  0  0
  6 23  1  0  0  0  0
  6 24  1  0  0  0  0
  7 25  1  0  0  0  0
  7 26  1  0  0  0  0
  8 27  1  0  0  0  0
  8 28  1  0  0  0  0
 10 29  1  0  0  0  0
 10 30  1  0  0  0  0
 10 31  1  0  0  0  0
 11 32  1  0  0  0  0
 11 33  1  0  0  0  0
 11 34  1  0  0  0  0
 12 35  1  0  0  0  0
 12 36  1  0  0  0  0
 12 37  1  0  0  0  0
 13 38  1  0  0  0  0
 14 39  1  0  0  0  0
 16 40  1  0  0  0  0
 16 41  1  0  0  0  0
 17 42  1  0  0  0  0
M  END
> <FRED Chemgauss4 score>
-6.824096

$$$$
C90312751	P141186425
  -OEChem-05122015073D

 36 37  0     1  0  0  0  0  0999 V2000
   55.5931  157.4154   -1.2977 C   0  0  0  0  0  0  0  0  0  0  0  0
   55.6141  158.3847   -2.2726 C   0  0  0  0  0  0  0  0  0  0  0  0
   57.0923  158.9694   -0.8572 C   0  0  0  0  0  0  0  0  0  0  0  0
   55.4943  154.4267   -6.2887 C   0  0  0  0  0  0  0  0  0  0  0  0
   54.5199  155.6155   -6.1734 C   0  0  2  0  0  0  0  0  0  0  0  0
   55.3600  156.1137   -4.9734 C   0  0  1  0  0  0  0  0  0  0  0  0
   56.5476  155.3104   -5.5745 C   0  0  2  0  0  0  0  0  0  0  0  0
   58.1606  159.6617   -0.1132 C   0  0  0  0  0  0  0  0  0  0  0  0
   59.3888  156.0038   -7.8149 C   0  0  0  0  0  0  0  0  0  0  0  0
   58.4772  155.2007   -6.9116 C   0  0  0  0  0  0  0  0  0  0  0  0
   56.5497  159.3490   -1.9928 N   0  0  0  0  0  0  0  0  0  0  0  0
   56.5456  157.8033   -0.3981 N   0  0  0  0  0  0  0  0  0  0  0  0
   53.2334  155.1328   -5.6906 N   0  0  0  0  0  0  0  0  0  0  0  0
   55.5354  157.5972   -4.8439 N   0  0  0  0  0  0  0  0  0  0  0  0
   53.3808  157.7137   -3.4442 O   0  0  0  0  0  0  0  0  0  0  0  0
   54.5413  159.8351   -4.1351 O   0  0  0  0  0  0  0  0  0  0  0  0
   57.4405  156.0389   -6.4408 O   0  0  0  0  0  0  0  0  0  0  0  0
   54.6017  158.4466   -3.7204 S   0  0  0  0  0  0  0  0  0  0  0  0
   55.0099  156.5157   -1.1629 H   0  0  0  0  0  0  0  0  0  0  0  0
   55.2350  153.5256   -5.7191 H   0  0  0  0  0  0  0  0  0  0  0  0
   55.7437  154.1318   -7.3124 H   0  0  0  0  0  0  0  0  0  0  0  0
   54.4856  156.2780   -7.0441 H   0  0  0  0  0  0  0  0  0  0  0  0
   55.0545  155.7039   -3.9998 H   0  0  0  0  0  0  0  0  0  0  0  0
   57.1304  154.7661   -4.8227 H   0  0  0  0  0  0  0  0  0  0  0  0
   57.7414  160.3854    0.6057 H   0  0  0  0  0  0  0  0  0  0  0  0
   58.7955  158.9582    0.4530 H   0  0  0  0  0  0  0  0  0  0  0  0
   58.8427  160.2138   -0.7834 H   0  0  0  0  0  0  0  0  0  0  0  0
   58.8391  156.3957   -8.6751 H   0  0  0  0  0  0  0  0  0  0  0  0
   59.8336  156.8417   -7.2680 H   0  0  0  0  0  0  0  0  0  0  0  0
   60.2164  155.3847   -8.1767 H   0  0  0  0  0  0  0  0  0  0  0  0
   59.0332  154.8117   -6.0533 H   0  0  0  0  0  0  0  0  0  0  0  0
   58.0330  154.3646   -7.4598 H   0  0  0  0  0  0  0  0  0  0  0  0
   56.7978  157.3158    0.4515 H   0  0  0  0  0  0  0  0  0  0  0  0
   52.8292  154.3363   -6.1374 H   0  0  0  0  0  0  0  0  0  0  0  0
   52.7070  155.7213   -5.0788 H   0  0  0  0  0  0  0  0  0  0  0  0
   56.4473  157.9397   -5.1281 H   0  0  0  0  0  0  0  0  0  0  0  0
  1  2  2  0  0  0  0
  1 12  1  0  0  0  0
  2 11  1  0  0  0  0
  2 18  1  0  0  0  0
  3  8  1  0  0  0  0
  3 11  2  0  0  0  0
  3 12  1  0  0  0  0
  4  5  1  0  0  0  0
  4  7  1  0  0  0  0
  5  6  1  0  0  0  0
  5 13  1  0  0  0  0
  6  7  1  0  0  0  0
  6 14  1  0  0  0  0
  7 17  1  0  0  0  0
  9 10  1  0  0  0  0
 10 17  1  0  0  0  0
 14 18  1  0  0  0  0
 15 18  2  0  0  0  0
 16 18  2  0  0  0  0
  1 19  1  0  0  0  0
  4 20  1  0  0  0  0
  4 21  1  0  0  0  0
  5 22  1  0  0  0  0
  6 23  1  0  0  0  0
  7 24  1  0  0  0  0
  8 25  1  0  0  0  0
  8 26  1  0  0  0  0
  8 27  1  0  0  0  0
  9 28  1  0  0  0  0
  9 29  1  0  0  0  0
  9 30  1  0  0  0  0
 10 31  1  0  0  0  0
 10 32  1  0  0  0  0
 12 33  1  0  0  0  0
 13 34  1  0  0  0  0
 13 35  1  0  0  0  0
 14 36  1  0  0  0  0
M  END
> <FRED Chemgauss4 score>
-6.821573

$$$$
C97344605	P154171042
  -OEChem-05122015073D

 40 42  0     1  0  0  0  0  0999 V2000
   53.7543  154.4059   -5.4185 C   0  0  0  0  0  0  0  0  0  0  0  0
   58.4093  155.3075   -6.4129 C   0  0  0  0  0  0  0  0  0  0  0  0
   55.0039  153.9501   -5.8286 C   0  0  0  0  0  0  0  0  0  0  0  0
   57.3578  154.4060   -6.3315 C   0  0  0  0  0  0  0  0  0  0  0  0
   53.5842  155.7475   -5.1001 C   0  0  0  0  0  0  0  0  0  0  0  0
   56.1190  159.6510   -3.8309 C   0  0  0  0  0  0  0  0  0  0  0  0
   55.1577  157.9378   -2.4245 C   0  0  0  0  0  0  0  0  0  0  0  0
   56.8786  160.1087   -2.7542 C   0  0  0  0  0  0  0  0  0  0  0  0
   55.9173  158.3954   -1.3478 C   0  0  0  0  0  0  0  0  0  0  0  0
   58.1510  156.6211   -6.0777 C   0  0  0  0  0  0  0  0  0  0  0  0
   56.0892  154.8379   -5.9214 C   0  0  0  0  0  0  0  0  0  0  0  0
   55.2585  158.5656   -3.6660 C   0  0  0  0  0  0  0  0  0  0  0  0
   54.6634  156.6299   -5.1925 C   0  0  0  0  0  0  0  0  0  0  0  0
   55.9239  156.2014   -5.5996 C   0  0  0  0  0  0  0  0  0  0  0  0
   56.7778  159.4809   -1.5127 C   0  0  0  0  0  0  0  0  0  0  0  0
   58.4455  161.0679   -0.5853 C   0  0  0  0  0  0  0  0  0  0  0  0
   57.4387  159.3051    0.8732 C   0  0  0  0  0  0  0  0  0  0  0  0
   54.4297  158.0662   -4.8391 C   0  0  1  0  0  0  0  0  0  0  0  0
   56.9425  157.0785   -5.6777 N   0  0  0  0  0  0  0  0  0  0  0  0
   53.0012  158.3155   -4.5816 N   0  0  0  0  0  0  0  0  0  0  0  0
   57.5470  159.9421   -0.4244 N   0  0  0  0  0  0  0  0  0  0  0  0
   52.9181  153.7168   -5.3483 H   0  0  0  0  0  0  0  0  0  0  0  0
   59.3961  154.9909   -6.7294 H   0  0  0  0  0  0  0  0  0  0  0  0
   55.1262  152.8978   -6.0754 H   0  0  0  0  0  0  0  0  0  0  0  0
   57.5326  153.3645   -6.5915 H   0  0  0  0  0  0  0  0  0  0  0  0
   52.6076  156.1019   -4.7807 H   0  0  0  0  0  0  0  0  0  0  0  0
   56.2030  160.1467   -4.7942 H   0  0  0  0  0  0  0  0  0  0  0  0
   54.4888  157.0927   -2.2862 H   0  0  0  0  0  0  0  0  0  0  0  0
   57.5449  160.9561   -2.8931 H   0  0  0  0  0  0  0  0  0  0  0  0
   55.8303  157.8991   -0.3847 H   0  0  0  0  0  0  0  0  0  0  0  0
   58.9343  157.3707   -6.1226 H   0  0  0  0  0  0  0  0  0  0  0  0
   58.9540  161.2807    0.3586 H   0  0  0  0  0  0  0  0  0  0  0  0
   57.8870  161.9563   -0.8924 H   0  0  0  0  0  0  0  0  0  0  0  0
   59.1971  160.8457   -1.3476 H   0  0  0  0  0  0  0  0  0  0  0  0
   58.1050  159.7942    1.5886 H   0  0  0  0  0  0  0  0  0  0  0  0
   57.7145  158.2496    0.8003 H   0  0  0  0  0  0  0  0  0  0  0  0
   56.4125  159.3744    1.2438 H   0  0  0  0  0  0  0  0  0  0  0  0
   54.6558  158.6939   -5.7177 H   0  0  0  0  0  0  0  0  0  0  0  0
   52.3442  157.7941   -5.1098 H   0  0  0  0  0  0  0  0  0  0  0  0
   52.7662  159.1207   -4.0535 H   0  0  0  0  0  0  0  0  0  0  0  0
  1  3  1  0  0  0  0
  1  5  2  0  0  0  0
  2  4  2  0  0  0  0
  2 10  1  0  0  0  0
  3 11  2  0  0  0  0
  4 11  1  0  0  0  0
  5 13  1  0  0  0  0
  6  8  2  0  0  0  0
  6 12  1  0  0  0  0
  7  9  1  0  0  0  0
  7 12  2  0  0  0  0
  8 15  1  0  0  0  0
  9 15  2  0  0  0  0
 10 19  2  0  0  0  0
 11 14  1  0  0  0  0
 12 18  1  0  0  0  0
 13 14  2  0  0  0  0
 13 18  1  0  0  0  0
 14 19  1  0  0  0  0
 15 21  1  0  0  0  0
 16 21  1  0  0  0  0
 17 21  1  0  0  0  0
 18 20  1  0  0  0  0
  1 22  1  0  0  0  0
  2 23  1  0  0  0  0
  3 24  1  0  0  0  0
  4 25  1  0  0  0  0
  5 26  1  0  0  0  0
  6 27  1  0  0  0  0
  7 28  1  0  0  0  0
  8 29  1  0  0  0  0
  9 30  1  0  0  0  0
 10 31  1  0  0  0  0
 16 32  1  0  0  0  0
 16 33  1  0  0  0  0
 16 34  1  0  0  0  0
 17 35  1  0  0  0  0
 17 36  1  0  0  0  0
 17 37  1  0  0  0  0
 18 38  1  0  0  0  0
 20 39  1  0  0  0  0
 20 40  1  0  0  0  0
M  END
> <FRED Chemgauss4 score>
-6.817564

$$$$
C01762927	P05459972
  -OEChem-05122015073D

 26 26  0     1  0  0  0  0  0999 V2000
   55.9276  156.1696   -5.9229 C   0  0  0  0  0  0  0  0  0  0  0  0
   55.2268  155.0439   -5.8318 C   0  0  0  0  0  0  0  0  0  0  0  0
   54.9621  157.2684   -5.9911 C   0  0  0  0  0  0  0  0  0  0  0  0
   53.7731  155.3010   -5.8309 C   0  0  1  0  0  0  0  0  0  0  0  0
   57.7845  157.1068   -4.8976 C   0  0  0  0  0  0  0  0  0  0  0  0
   55.3050  152.9560   -6.8377 C   0  0  0  0  0  0  0  0  0  0  0  0
   53.5808  155.6675   -3.3491 C   0  0  0  0  0  0  0  0  0  0  0  0
   53.0714  154.8796   -4.5496 C   0  0  1  0  0  0  0  0  0  0  0  0
   55.2357  158.4524   -6.0786 O   0  0  0  0  0  0  0  0  0  0  0  0
   53.7011  156.7367   -5.9473 O   0  0  0  0  0  0  0  0  0  0  0  0
   52.9108  155.2120   -2.1784 O   0  0  0  0  0  0  0  0  0  0  0  0
   51.6726  155.1270   -4.6856 O   0  0  0  0  0  0  0  0  0  0  0  0
   57.2757  156.3230   -5.9612 O   0  0  0  0  0  0  0  0  0  0  0  0
   55.7370  153.7804   -5.7743 O   0  0  0  0  0  0  0  0  0  0  0  0
   53.2858  154.8609   -6.7071 H   0  0  0  0  0  0  0  0  0  0  0  0
   58.8702  157.1882   -4.9909 H   0  0  0  0  0  0  0  0  0  0  0  0
   57.5239  156.6413   -3.9437 H   0  0  0  0  0  0  0  0  0  0  0  0
   57.3410  158.1041   -4.9472 H   0  0  0  0  0  0  0  0  0  0  0  0
   55.7478  151.9625   -6.7326 H   0  0  0  0  0  0  0  0  0  0  0  0
   55.6043  153.4011   -7.7899 H   0  0  0  0  0  0  0  0  0  0  0  0
   54.2161  152.8726   -6.8031 H   0  0  0  0  0  0  0  0  0  0  0  0
   54.6551  155.5153   -3.2020 H   0  0  0  0  0  0  0  0  0  0  0  0
   53.3754  156.7364   -3.4636 H   0  0  0  0  0  0  0  0  0  0  0  0
   53.1988  153.8049   -4.3771 H   0  0  0  0  0  0  0  0  0  0  0  0
   53.2591  155.7337   -1.4383 H   0  0  0  0  0  0  0  0  0  0  0  0
   51.2623  154.8470   -3.8534 H   0  0  0  0  0  0  0  0  0  0  0  0
  1  2  2  0  0  0  0
  1  3  1  0  0  0  0
  1 13  1  0  0  0  0
  2  4  1  0  0  0  0
  2 14  1  0  0  0  0
  3  9  2  0  0  0  0
  3 10  1  0  0  0  0
  4  8  1  0  0  0  0
  4 10  1  0  0  0  0
  5 13  1  0  0  0  0
  6 14  1  0  0  0  0
  7  8  1  0  0  0  0
  7 11  1  0  0  0  0
  8 12  1  0  0  0  0
  4 15  1  0  0  0  0
  5 16  1  0  0  0  0
  5 17  1  0  0  0  0
  5 18  1  0  0  0  0
  6 19  1  0  0  0  0
  6 20  1  0  0  0  0
  6 21  1  0  0  0  0
  7 22  1  0  0  0  0
  7 23  1  0  0  0  0
  8 24  1  0  0  0  0
 11 25  1  0  0  0  0
 12 26  1  0  0  0  0
M  END
> <FRED Chemgauss4 score>
-6.816568

$$$$
C83804931	P131109815
  -OEChem-05122015073D

 29 30  0     1  0  0  0  0  0999 V2000
   57.0574  156.5288   -6.2158 C   0  0  0  0  0  0  0  0  0  0  0  0
   55.0641  155.9862   -6.1064 C   0  0  0  0  0  0  0  0  0  0  0  0
   58.5127  158.2695   -4.9015 C   0  0  0  0  0  0  0  0  0  0  0  0
   58.3203  157.3481   -6.0865 C   0  0  2  0  0  0  0  0  0  0  0  0
   58.2679  158.8516   -6.2617 C   0  0  2  0  0  0  0  0  0  0  0  0
   59.3633  159.5582   -6.9830 C   0  0  0  0  0  0  0  0  0  0  0  0
   53.1759  155.2624   -4.5447 C   0  0  0  0  0  0  0  0  0  0  0  0
   53.6675  156.1071   -3.3738 C   0  0  0  0  0  0  0  0  0  0  0  0
   53.5694  155.8369   -5.9150 C   0  0  1  0  0  0  0  0  0  0  0  0
   55.8406  156.9991   -5.8152 N   0  0  0  0  0  0  0  0  0  0  0  0
   57.0628  155.2958   -6.7308 N   0  0  0  0  0  0  0  0  0  0  0  0
   52.9040  157.1051   -6.1236 N   0  0  0  0  0  0  0  0  0  0  0  0
   55.7136  154.9273   -6.6571 O   0  0  0  0  0  0  0  0  0  0  0  0
   53.2705  155.4808   -2.1607 O   0  0  0  0  0  0  0  0  0  0  0  0
   57.7151  158.3481   -4.1715 H   0  0  0  0  0  0  0  0  0  0  0  0
   59.5071  158.3461   -4.4767 H   0  0  0  0  0  0  0  0  0  0  0  0
   59.2333  156.8444   -6.4500 H   0  0  0  0  0  0  0  0  0  0  0  0
   57.3053  159.3161   -6.4410 H   0  0  0  0  0  0  0  0  0  0  0  0
   60.3416  159.0851   -6.8000 H   0  0  0  0  0  0  0  0  0  0  0  0
   59.4456  160.6104   -6.6664 H   0  0  0  0  0  0  0  0  0  0  0  0
   59.1991  159.5571   -8.0727 H   0  0  0  0  0  0  0  0  0  0  0  0
   52.0815  155.1847   -4.4824 H   0  0  0  0  0  0  0  0  0  0  0  0
   53.5350  154.2315   -4.4266 H   0  0  0  0  0  0  0  0  0  0  0  0
   54.7582  156.1925   -3.3724 H   0  0  0  0  0  0  0  0  0  0  0  0
   53.2299  157.1099   -3.4058 H   0  0  0  0  0  0  0  0  0  0  0  0
   53.1671  155.1740   -6.6913 H   0  0  0  0  0  0  0  0  0  0  0  0
   51.9911  157.2410   -5.7306 H   0  0  0  0  0  0  0  0  0  0  0  0
   53.2704  157.7338   -6.8143 H   0  0  0  0  0  0  0  0  0  0  0  0
   53.5968  156.0400   -1.4375 H   0  0  0  0  0  0  0  0  0  0  0  0
  1  4  1  0  0  0  0
  1 10  1  0  0  0  0
  1 11  2  0  0  0  0
  2  9  1  0  0  0  0
  2 10  2  0  0  0  0
  2 13  1  0  0  0  0
  3  4  1  0  0  0  0
  3  5  1  0  0  0  0
  4  5  1  0  0  0  0
  5  6  1  0  0  0  0
  7  8  1  0  0  0  0
  7  9  1  0  0  0  0
  8 14  1  0  0  0  0
  9 12  1  0  0  0  0
 11 13  1  0  0  0  0
  3 15  1  0  0  0  0
  3 16  1  0  0  0  0
  4 17  1  0  0  0  0
  5 18  1  0  0  0  0
  6 19  1  0  0  0  0
  6 20  1  0  0  0  0
  6 21  1  0  0  0  0
  7 22  1  0  0  0  0
  7 23  1  0  0  0  0
  8 24  1  0  0  0  0
  8 25  1  0  0  0  0
  9 26  1  0  0  0  0
 12 27  1  0  0  0  0
 12 28  1  0  0  0  0
 14 29  1  0  0  0  0
M  END
> <FRED Chemgauss4 score>
-6.810561

$$$$
C79001101	P123335886
  -OEChem-05122015073D

 35 36  0     0  0  0  0  0  0999 V2000
   56.7556  158.5043   -2.3408 C   0  0  0  0  0  0  0  0  0  0  0  0
   55.6871  156.9893   -3.8730 C   0  0  0  0  0  0  0  0  0  0  0  0
   55.6283  158.4056   -1.5414 C   0  0  0  0  0  0  0  0  0  0  0  0
   57.7731  154.5706   -7.5414 C   0  0  0  0  0  0  0  0  0  0  0  0
   59.0303  154.6128   -8.0966 C   0  0  0  0  0  0  0  0  0  0  0  0
   56.7777  157.7796   -3.5272 C   0  0  0  0  0  0  0  0  0  0  0  0
   54.6077  156.9583   -3.0049 C   0  0  0  0  0  0  0  0  0  0  0  0
   58.4949  156.5375   -7.1664 C   0  0  0  0  0  0  0  0  0  0  0  0
   53.4414  156.1497   -3.3156 C   0  0  0  0  0  0  0  0  0  0  0  0
   60.7646  156.4077   -8.2426 C   0  0  0  0  0  0  0  0  0  0  0  0
   57.9660  157.8498   -4.4247 C   0  0  0  0  0  0  0  0  0  0  0  0
   58.6447  157.9646   -6.7245 C   0  0  0  0  0  0  0  0  0  0  0  0
   54.5499  157.6485   -1.8439 N   0  0  0  0  0  0  0  0  0  0  0  0
   57.4457  155.7719   -6.9642 N   0  0  0  0  0  0  0  0  0  0  0  0
   52.7656  155.6688   -2.2862 N   0  0  0  0  0  0  0  0  0  0  0  0
   59.4799  155.8792   -7.8488 N   0  0  0  0  0  0  0  0  0  0  0  0
   53.0373  155.8799   -4.6277 N   0  0  0  0  0  0  0  0  0  0  0  0
   57.6331  158.3409   -5.7380 N   0  0  0  0  0  0  0  0  0  0  0  0
   51.6649  154.9066   -2.6905 O   0  0  0  0  0  0  0  0  0  0  0  0
   57.5903  159.1297   -2.0431 H   0  0  0  0  0  0  0  0  0  0  0  0
   55.6843  156.4158   -4.7947 H   0  0  0  0  0  0  0  0  0  0  0  0
   55.5614  158.9511   -0.6058 H   0  0  0  0  0  0  0  0  0  0  0  0
   57.0871  153.7363   -7.5280 H   0  0  0  0  0  0  0  0  0  0  0  0
   59.6207  153.8784   -8.6265 H   0  0  0  0  0  0  0  0  0  0  0  0
   60.6564  156.8524   -9.2354 H   0  0  0  0  0  0  0  0  0  0  0  0
   61.0854  157.1620   -7.5188 H   0  0  0  0  0  0  0  0  0  0  0  0
   61.4980  155.5968   -8.2636 H   0  0  0  0  0  0  0  0  0  0  0  0
   58.7374  158.5143   -4.0102 H   0  0  0  0  0  0  0  0  0  0  0  0
   58.4335  156.8636   -4.5532 H   0  0  0  0  0  0  0  0  0  0  0  0
   59.6306  158.1284   -6.2759 H   0  0  0  0  0  0  0  0  0  0  0  0
   58.5557  158.6503   -7.5736 H   0  0  0  0  0  0  0  0  0  0  0  0
   53.5317  156.2565   -5.4284 H   0  0  0  0  0  0  0  0  0  0  0  0
   52.2075  155.3298   -4.8230 H   0  0  0  0  0  0  0  0  0  0  0  0
   57.5584  159.3629   -5.7220 H   0  0  0  0  0  0  0  0  0  0  0  0
   51.2900  154.6370   -1.8351 H   0  0  0  0  0  0  0  0  0  0  0  0
  1  3  2  0  0  0  0
  1  6  1  0  0  0  0
  2  6  2  0  0  0  0
  2  7  1  0  0  0  0
  3 13  1  0  0  0  0
  4  5  2  0  0  0  0
  4 14  1  0  0  0  0
  5 16  1  0  0  0  0
  6 11  1  0  0  0  0
  7  9  1  0  0  0  0
  7 13  2  0  0  0  0
  8 12  1  0  0  0  0
  8 14  2  0  0  0  0
  8 16  1  0  0  0  0
  9 15  2  0  0  0  0
  9 17  1  0  0  0  0
 10 16  1  0  0  0  0
 11 18  1  0  0  0  0
 12 18  1  0  0  0  0
 15 19  1  0  0  0  0
  1 20  1  0  0  0  0
  2 21  1  0  0  0  0
  3 22  1  0  0  0  0
  4 23  1  0  0  0  0
  5 24  1  0  0  0  0
 10 25  1  0  0  0  0
 10 26  1  0  0  0  0
 10 27  1  0  0  0  0
 11 28  1  0  0  0  0
 11 29  1  0  0  0  0
 12 30  1  0  0  0  0
 12 31  1  0  0  0  0
 17 32  1  0  0  0  0
 17 33  1  0  0  0  0
 18 34  1  0  0  0  0
 19 35  1  0  0  0  0
M  END
> <FRED Chemgauss4 score>
-6.810512

$$$$
C44197910	P66763191
  -OEChem-05122015073D

 21 21  0     1  0  0  0  0  0999 V2000
   56.2184  156.4389   -5.9740 C   0  0  0  0  0  0  0  0  0  0  0  0
   56.8188  154.2654   -6.5377 C   0  0  0  0  0  0  0  0  0  0  0  0
   57.2476  155.5709   -6.4404 C   0  0  0  0  0  0  0  0  0  0  0  0
   55.0420  155.7638   -5.7328 C   0  0  0  0  0  0  0  0  0  0  0  0
   53.2488  155.6809   -3.9169 C   0  0  0  0  0  0  0  0  0  0  0  0
   54.2407  155.8567   -2.7718 C   0  0  0  0  0  0  0  0  0  0  0  0
   53.7233  156.3162   -5.2337 C   0  0  2  0  0  0  0  0  0  0  0  0
   52.7044  156.1800   -6.2524 N   0  0  0  0  0  0  0  0  0  0  0  0
   53.7180  155.2192   -1.6133 O   0  0  0  0  0  0  0  0  0  0  0  0
   55.1813  154.0903   -6.0681 S   0  0  0  0  0  0  0  0  0  0  0  0
   58.9769  156.1838   -6.8602 Br  0  0  0  0  0  0  0  0  0  0  0  0
   56.3298  157.5056   -5.8212 H   0  0  0  0  0  0  0  0  0  0  0  0
   57.3831  153.4016   -6.8610 H   0  0  0  0  0  0  0  0  0  0  0  0
   52.2909  156.1301   -3.6198 H   0  0  0  0  0  0  0  0  0  0  0  0
   53.0270  154.6133   -4.0465 H   0  0  0  0  0  0  0  0  0  0  0  0
   55.2068  155.3998   -3.0058 H   0  0  0  0  0  0  0  0  0  0  0  0
   54.3914  156.9170   -2.5459 H   0  0  0  0  0  0  0  0  0  0  0  0
   53.8186  157.3976   -5.0738 H   0  0  0  0  0  0  0  0  0  0  0  0
   52.9696  156.2744   -7.2153 H   0  0  0  0  0  0  0  0  0  0  0  0
   51.7403  156.1993   -5.9756 H   0  0  0  0  0  0  0  0  0  0  0  0
   54.3694  155.3482   -0.9053 H   0  0  0  0  0  0  0  0  0  0  0  0
  1  3  1  0  0  0  0
  1  4  2  0  0  0  0
  2  3  2  0  0  0  0
  2 10  1  0  0  0  0
  3 11  1  0  0  0  0
  4  7  1  0  0  0  0
  4 10  1  0  0  0  0
  5  6  1  0  0  0  0
  5  7  1  0  0  0  0
  6  9  1  0  0  0  0
  7  8  1  0  0  0  0
  1 12  1  0  0  0  0
  2 13  1  0  0  0  0
  5 14  1  0  0  0  0
  5 15  1  0  0  0  0
  6 16  1  0  0  0  0
  6 17  1  0  0  0  0
  7 18  1  0  0  0  0
  8 19  1  0  0  0  0
  8 20  1  0  0  0  0
  9 21  1  0  0  0  0
M  END
> <FRED Chemgauss4 score>
-6.803551

$$$$
C72198462	P112155832
  -OEChem-05122015073D

 30 30  0     1  0  0  0  0  0999 V2000
   55.5920  153.1637   -7.2542 C   0  0  0  0  0  0  0  0  0  0  0  0
   56.2422  156.7619   -5.1436 C   0  0  0  0  0  0  0  0  0  0  0  0
   57.3264  156.0820   -5.6985 C   0  0  0  0  0  0  0  0  0  0  0  0
   55.8295  154.3830   -6.5412 C   0  0  0  0  0  0  0  0  0  0  0  0
   54.9517  156.2524   -5.2874 C   0  0  0  0  0  0  0  0  0  0  0  0
   57.1200  154.8925   -6.3973 C   0  0  0  0  0  0  0  0  0  0  0  0
   54.7453  155.0630   -5.9862 C   0  0  0  0  0  0  0  0  0  0  0  0
   58.9522  153.2333   -6.1732 C   0  0  0  0  0  0  0  0  0  0  0  0
   58.6696  154.5170   -8.2994 C   0  0  0  0  0  0  0  0  0  0  0  0
   53.0065  156.1458   -3.6690 C   0  0  0  0  0  0  0  0  0  0  0  0
   53.7954  156.9827   -4.6924 C   0  0  2  0  0  0  0  0  0  0  0  0
   55.3996  152.1756   -7.8318 N   0  0  0  0  0  0  0  0  0  0  0  0
   52.8789  157.4695   -5.7127 N   0  0  0  0  0  0  0  0  0  0  0  0
   58.2376  154.2251   -6.9488 N   0  0  0  0  0  0  0  0  0  0  0  0
   53.8507  155.7878   -2.5795 O   0  0  0  0  0  0  0  0  0  0  0  0
   53.5006  154.5791   -6.1204 F   0  0  0  0  0  0  0  0  0  0  0  0
   56.4126  157.6879   -4.6008 H   0  0  0  0  0  0  0  0  0  0  0  0
   58.3274  156.4889   -5.5796 H   0  0  0  0  0  0  0  0  0  0  0  0
   59.7814  152.8256   -6.7573 H   0  0  0  0  0  0  0  0  0  0  0  0
   58.2816  152.4155   -5.8958 H   0  0  0  0  0  0  0  0  0  0  0  0
   59.3522  153.6834   -5.2607 H   0  0  0  0  0  0  0  0  0  0  0  0
   59.5426  153.9105   -8.5541 H   0  0  0  0  0  0  0  0  0  0  0  0
   58.9363  155.5735   -8.3909 H   0  0  0  0  0  0  0  0  0  0  0  0
   57.8679  154.2952   -9.0089 H   0  0  0  0  0  0  0  0  0  0  0  0
   52.1708  156.7267   -3.2635 H   0  0  0  0  0  0  0  0  0  0  0  0
   52.6114  155.2263   -4.1143 H   0  0  0  0  0  0  0  0  0  0  0  0
   54.1391  157.8984   -4.1784 H   0  0  0  0  0  0  0  0  0  0  0  0
   53.2607  157.7921   -6.5780 H   0  0  0  0  0  0  0  0  0  0  0  0
   51.9331  157.6570   -5.4497 H   0  0  0  0  0  0  0  0  0  0  0  0
   53.3082  155.2653   -1.9682 H   0  0  0  0  0  0  0  0  0  0  0  0
  1  4  1  0  0  0  0
  1 12  3  0  0  0  0
  2  3  2  0  0  0  0
  2  5  1  0  0  0  0
  3  6  1  0  0  0  0
  4  6  2  0  0  0  0
  4  7  1  0  0  0  0
  5  7  2  0  0  0  0
  5 11  1  0  0  0  0
  6 14  1  0  0  0  0
  7 16  1  0  0  0  0
  8 14  1  0  0  0  0
  9 14  1  0  0  0  0
 10 11  1  0  0  0  0
 10 15  1  0  0  0  0
 11 13  1  0  0  0  0
  2 17  1  0  0  0  0
  3 18  1  0  0  0  0
  8 19  1  0  0  0  0
  8 20  1  0  0  0  0
  8 21  1  0  0  0  0
  9 22  1  0  0  0  0
  9 23  1  0  0  0  0
  9 24  1  0  0  0  0
 10 25  1  0  0  0  0
 10 26  1  0  0  0  0
 11 27  1  0  0  0  0
 13 28  1  0  0  0  0
 13 29  1  0  0  0  0
 15 30  1  0  0  0  0
M  END
> <FRED Chemgauss4 score>
-6.803447

$$$$
C79403161	P124075411
  -OEChem-05122015073D

 46 47  0     1  0  0  0  0  0999 V2000
   55.8995  154.9824   -6.3161 C   0  0  0  0  0  0  0  0  0  0  0  0
   55.1727  154.9009   -5.1336 C   0  0  0  0  0  0  0  0  0  0  0  0
   56.6791  156.1052   -6.5705 C   0  0  0  0  0  0  0  0  0  0  0  0
   55.2586  155.9606   -4.2452 C   0  0  0  0  0  0  0  0  0  0  0  0
   56.6974  157.1112   -5.6179 C   0  0  0  0  0  0  0  0  0  0  0  0
   59.6983  158.2402   -4.7817 C   0  0  0  0  0  0  0  0  0  0  0  0
   59.4141  159.5118   -3.9680 C   0  0  0  0  0  0  0  0  0  0  0  0
   56.8873  160.0257   -4.2734 C   0  0  0  0  0  0  0  0  0  0  0  0
   58.9316  158.1429   -6.0985 C   0  0  0  0  0  0  0  0  0  0  0  0
   56.9710  159.5937   -5.7375 C   0  0  0  0  0  0  0  0  0  0  0  0
   58.0098  159.5338   -3.3349 C   0  0  2  0  0  0  0  0  0  0  0  0
   59.0615  159.8646   -1.0820 C   0  0  0  0  0  0  0  0  0  0  0  0
   56.6264  160.3614   -1.4136 C   0  0  0  0  0  0  0  0  0  0  0  0
   58.3611  161.8512   -2.4420 C   0  0  0  0  0  0  0  0  0  0  0  0
   54.4913  155.9066   -2.9662 C   0  0  0  0  0  0  0  0  0  0  0  0
   58.0147  160.4014   -2.0700 C   0  0  0  0  0  0  0  0  0  0  0  0
   56.0050  157.0677   -4.4576 N   0  0  0  0  0  0  0  0  0  0  0  0
   57.4838  158.2302   -5.8873 N   0  0  0  0  0  0  0  0  0  0  0  0
   53.0854  156.1527   -3.1613 N   0  0  0  0  0  0  0  0  0  0  0  0
   55.8593  154.1717   -7.0377 H   0  0  0  0  0  0  0  0  0  0  0  0
   54.5610  154.0302   -4.9233 H   0  0  0  0  0  0  0  0  0  0  0  0
   57.2500  156.1764   -7.4906 H   0  0  0  0  0  0  0  0  0  0  0  0
   60.7702  158.2273   -5.0277 H   0  0  0  0  0  0  0  0  0  0  0  0
   59.5299  157.3479   -4.1631 H   0  0  0  0  0  0  0  0  0  0  0  0
   60.1524  159.5522   -3.1580 H   0  0  0  0  0  0  0  0  0  0  0  0
   59.5763  160.4037   -4.5830 H   0  0  0  0  0  0  0  0  0  0  0  0
   56.8160  161.1329   -4.2159 H   0  0  0  0  0  0  0  0  0  0  0  0
   55.9226  159.6574   -3.8663 H   0  0  0  0  0  0  0  0  0  0  0  0
   59.2430  158.9508   -6.7508 H   0  0  0  0  0  0  0  0  0  0  0  0
   59.1769  157.1980   -6.5699 H   0  0  0  0  0  0  0  0  0  0  0  0
   56.0044  159.7169   -6.2560 H   0  0  0  0  0  0  0  0  0  0  0  0
   57.6534  160.2980   -6.2471 H   0  0  0  0  0  0  0  0  0  0  0  0
   57.7579  158.5084   -3.0205 H   0  0  0  0  0  0  0  0  0  0  0  0
   59.0885  160.4655   -0.1660 H   0  0  0  0  0  0  0  0  0  0  0  0
   60.0652  159.8816   -1.5215 H   0  0  0  0  0  0  0  0  0  0  0  0
   58.8406  158.8303   -0.7956 H   0  0  0  0  0  0  0  0  0  0  0  0
   56.6009  160.9741   -0.5054 H   0  0  0  0  0  0  0  0  0  0  0  0
   55.8565  160.7419   -2.0940 H   0  0  0  0  0  0  0  0  0  0  0  0
   56.3483  159.3391   -1.1338 H   0  0  0  0  0  0  0  0  0  0  0  0
   58.3717  162.4949   -1.5552 H   0  0  0  0  0  0  0  0  0  0  0  0
   57.6314  162.2660   -3.1463 H   0  0  0  0  0  0  0  0  0  0  0  0
   59.3497  161.9134   -2.9108 H   0  0  0  0  0  0  0  0  0  0  0  0
   54.5915  154.9232   -2.4867 H   0  0  0  0  0  0  0  0  0  0  0  0
   54.8578  156.6504   -2.2460 H   0  0  0  0  0  0  0  0  0  0  0  0
   52.5437  156.5242   -2.3988 H   0  0  0  0  0  0  0  0  0  0  0  0
   52.6294  155.7663   -3.9711 H   0  0  0  0  0  0  0  0  0  0  0  0
  1  2  1  0  0  0  0
  1  3  2  0  0  0  0
  2  4  2  0  0  0  0
  3  5  1  0  0  0  0
  4 15  1  0  0  0  0
  4 17  1  0  0  0  0
  5 17  2  0  0  0  0
  5 18  1  0  0  0  0
  6  7  1  0  0  0  0
  6  9  1  0  0  0  0
  7 11  1  0  0  0  0
  8 10  1  0  0  0  0
  8 11  1  0  0  0  0
  9 18  1  0  0  0  0
 10 18  1  0  0  0  0
 11 16  1  0  0  0  0
 12 16  1  0  0  0  0
 13 16  1  0  0  0  0
 14 16  1  0  0  0  0
 15 19  1  0  0  0  0
  1 20  1  0  0  0  0
  2 21  1  0  0  0  0
  3 22  1  0  0  0  0
  6 23  1  0  0  0  0
  6 24  1  0  0  0  0
  7 25  1  0  0  0  0
  7 26  1  0  0  0  0
  8 27  1  0  0  0  0
  8 28  1  0  0  0  0
  9 29  1  0  0  0  0
  9 30  1  0  0  0  0
 10 31  1  0  0  0  0
 10 32  1  0  0  0  0
 11 33  1  0  0  0  0
 12 34  1  0  0  0  0
 12 35  1  0  0  0  0
 12 36  1  0  0  0  0
 13 37  1  0  0  0  0
 13 38  1  0  0  0  0
 13 39  1  0  0  0  0
 14 40  1  0  0  0  0
 14 41  1  0  0  0  0
 14 42  1  0  0  0  0
 15 43  1  0  0  0  0
 15 44  1  0  0  0  0
 19 45  1  0  0  0  0
 19 46  1  0  0  0  0
M  END
> <FRED Chemgauss4 score>
-6.800849

$$$$
C87400800	P136736128
  -OEChem-05122015073D

 31 31  0     1  0  0  0  0  0999 V2000
   58.4083  156.7686   -6.7996 C   0  0  0  0  0  0  0  0  0  0  0  0
   57.4435  154.6380   -6.2389 C   0  0  0  0  0  0  0  0  0  0  0  0
   57.1815  157.3411   -6.5048 C   0  0  0  0  0  0  0  0  0  0  0  0
   58.5335  155.3907   -6.6616 C   0  0  0  0  0  0  0  0  0  0  0  0
   56.2599  155.3059   -5.9690 C   0  0  0  0  0  0  0  0  0  0  0  0
   59.7336  153.6888   -8.0953 C   0  0  0  0  0  0  0  0  0  0  0  0
   55.2920  153.0922   -5.4007 C   0  0  0  0  0  0  0  0  0  0  0  0
   53.8956  155.1584   -5.2284 C   0  0  0  0  0  0  0  0  0  0  0  0
   53.8818  155.5729   -3.7684 C   0  0  0  0  0  0  0  0  0  0  0  0
   59.8320  154.7238   -6.9644 C   0  0  2  0  0  0  0  0  0  0  0  0
   56.1002  156.6428   -6.0916 N   0  0  0  0  0  0  0  0  0  0  0  0
   60.4178  154.1064   -5.7863 N   0  0  0  0  0  0  0  0  0  0  0  0
   55.1575  154.5251   -5.5409 N   0  0  0  0  0  0  0  0  0  0  0  0
   52.6537  156.2267   -3.4747 O   0  0  0  0  0  0  0  0  0  0  0  0
   59.2398  157.3831   -7.1275 H   0  0  0  0  0  0  0  0  0  0  0  0
   57.5232  153.5609   -6.1268 H   0  0  0  0  0  0  0  0  0  0  0  0
   57.0322  158.4117   -6.5970 H   0  0  0  0  0  0  0  0  0  0  0  0
   59.0036  152.9112   -7.8454 H   0  0  0  0  0  0  0  0  0  0  0  0
   59.4227  154.1562   -9.0365 H   0  0  0  0  0  0  0  0  0  0  0  0
   60.6970  153.2007   -8.2814 H   0  0  0  0  0  0  0  0  0  0  0  0
   54.3475  152.6575   -5.0634 H   0  0  0  0  0  0  0  0  0  0  0  0
   56.0695  152.8554   -4.6693 H   0  0  0  0  0  0  0  0  0  0  0  0
   55.5640  152.6425   -6.3594 H   0  0  0  0  0  0  0  0  0  0  0  0
   53.0920  154.4479   -5.4468 H   0  0  0  0  0  0  0  0  0  0  0  0
   53.7844  156.0346   -5.8741 H   0  0  0  0  0  0  0  0  0  0  0  0
   54.6954  156.2779   -3.5713 H   0  0  0  0  0  0  0  0  0  0  0  0
   53.9888  154.7095   -3.1037 H   0  0  0  0  0  0  0  0  0  0  0  0
   60.5804  155.4712   -7.2830 H   0  0  0  0  0  0  0  0  0  0  0  0
   60.3079  154.5649   -4.9042 H   0  0  0  0  0  0  0  0  0  0  0  0
   61.0763  153.3645   -5.9154 H   0  0  0  0  0  0  0  0  0  0  0  0
   52.6861  156.4738   -2.5365 H   0  0  0  0  0  0  0  0  0  0  0  0
  1  3  2  0  0  0  0
  1  4  1  0  0  0  0
  2  4  2  0  0  0  0
  2  5  1  0  0  0  0
  3 11  1  0  0  0  0
  4 10  1  0  0  0  0
  5 11  2  0  0  0  0
  5 13  1  0  0  0  0
  6 10  1  0  0  0  0
  7 13  1  0  0  0  0
  8  9  1  0  0  0  0
  8 13  1  0  0  0  0
  9 14  1  0  0  0  0
 10 12  1  0  0  0  0
  1 15  1  0  0  0  0
  2 16  1  0  0  0  0
  3 17  1  0  0  0  0
  6 18  1  0  0  0  0
  6 19  1  0  0  0  0
  6 20  1  0  0  0  0
  7 21  1  0  0  0  0
  7 22  1  0  0  0  0
  7 23  1  0  0  0  0
  8 24  1  0  0  0  0
  8 25  1  0  0  0  0
  9 26  1  0  0  0  0
  9 27  1  0  0  0  0
 10 28  1  0  0  0  0
 12 29  1  0  0  0  0
 12 30  1  0  0  0  0
 14 31  1  0  0  0  0
M  END
> <FRED Chemgauss4 score>
-6.800010

$$$$
C82468597	P128880427
  -OEChem-05122015073D

 34 34  0     1  0  0  0  0  0999 V2000
   53.8522  156.2680   -3.1658 C   0  0  0  0  0  0  0  0  0  0  0  0
   58.3720  159.4675   -2.3172 C   0  0  0  0  0  0  0  0  0  0  0  0
   57.0873  158.8194   -2.8228 C   0  0  0  0  0  0  0  0  0  0  0  0
   58.6798  159.0424   -0.8793 C   0  0  0  0  0  0  0  0  0  0  0  0
   56.3316  158.6445   -0.4201 C   0  0  0  0  0  0  0  0  0  0  0  0
   55.9362  159.0590   -1.8446 C   0  0  2  0  0  0  0  0  0  0  0  0
   57.4001  160.6735    0.3936 C   0  0  0  0  0  0  0  0  0  0  0  0
   54.0628  159.0873   -3.3247 C   0  0  0  0  0  0  0  0  0  0  0  0
   55.0987  157.0039   -2.7255 C   0  0  0  0  0  0  0  0  0  0  0  0
   57.5744  159.2615    0.0622 N   0  0  2  0  0  0  0  0  0  0  0  0
   52.8739  155.2209   -5.0703 N   0  0  0  0  0  0  0  0  0  0  0  0
   53.9279  155.9053   -4.5007 N   0  0  0  0  0  0  0  0  0  0  0  0
   54.7524  158.3490   -2.2670 N   0  0  1  0  0  0  0  0  0  0  0  0
   52.9077  156.0320   -2.4161 O   0  0  0  0  0  0  0  0  0  0  0  0
   59.2069  159.1923   -2.9704 H   0  0  0  0  0  0  0  0  0  0  0  0
   58.2740  160.5589   -2.3643 H   0  0  0  0  0  0  0  0  0  0  0  0
   56.8393  159.2190   -3.8149 H   0  0  0  0  0  0  0  0  0  0  0  0
   57.2584  157.7409   -2.9501 H   0  0  0  0  0  0  0  0  0  0  0  0
   58.9899  157.9751   -0.8728 H   0  0  0  0  0  0  0  0  0  0  0  0
   59.5709  159.6111   -0.5418 H   0  0  0  0  0  0  0  0  0  0  0  0
   55.5026  158.9190    0.2662 H   0  0  0  0  0  0  0  0  0  0  0  0
   56.4082  157.5363   -0.3573 H   0  0  0  0  0  0  0  0  0  0  0  0
   55.7072  160.1417   -1.8383 H   0  0  0  0  0  0  0  0  0  0  0  0
   56.5704  160.7952    1.0947 H   0  0  0  0  0  0  0  0  0  0  0  0
   57.1847  161.2500   -0.5101 H   0  0  0  0  0  0  0  0  0  0  0  0
   58.3100  161.0690    0.8530 H   0  0  0  0  0  0  0  0  0  0  0  0
   53.1679  158.5444   -3.6397 H   0  0  0  0  0  0  0  0  0  0  0  0
   54.7208  159.2125   -4.1889 H   0  0  0  0  0  0  0  0  0  0  0  0
   53.7661  160.0758   -2.9640 H   0  0  0  0  0  0  0  0  0  0  0  0
   55.5741  156.4465   -1.9123 H   0  0  0  0  0  0  0  0  0  0  0  0
   55.7978  157.0702   -3.5649 H   0  0  0  0  0  0  0  0  0  0  0  0
   52.8173  155.5212   -6.0426 H   0  0  0  0  0  0  0  0  0  0  0  0
   52.0240  155.5600   -4.6213 H   0  0  0  0  0  0  0  0  0  0  0  0
   54.7476  156.1399   -5.0521 H   0  0  0  0  0  0  0  0  0  0  0  0
  1  9  1  0  0  0  0
  1 12  1  0  0  0  0
  1 14  2  0  0  0  0
  2  3  1  0  0  0  0
  2  4  1  0  0  0  0
  3  6  1  0  0  0  0
  4 10  1  0  0  0  0
  5  6  1  0  0  0  0
  5 10  1  0  0  0  0
  6 13  1  0  0  0  0
  7 10  1  0  0  0  0
  8 13  1  0  0  0  0
  9 13  1  0  0  0  0
 11 12  1  0  0  0  0
  2 15  1  0  0  0  0
  2 16  1  0  0  0  0
  3 17  1  0  0  0  0
  3 18  1  0  0  0  0
  4 19  1  0  0  0  0
  4 20  1  0  0  0  0
  5 21  1  0  0  0  0
  5 22  1  0  0  0  0
  6 23  1  0  0  0  0
  7 24  1  0  0  0  0
  7 25  1  0  0  0  0
  7 26  1  0  0  0  0
  8 27  1  0  0  0  0
  8 28  1  0  0  0  0
  8 29  1  0  0  0  0
  9 30  1  0  0  0  0
  9 31  1  0  0  0  0
 11 32  1  0  0  0  0
 11 33  1  0  0  0  0
 12 34  1  0  0  0  0
M  END
> <FRED Chemgauss4 score>
-6.795687

$$$$
C38523819	P132606343
  -OEChem-05122015073D

 26 26  0     0  0  0  0  0  0999 V2000
   55.0893  156.0765   -3.1244 C   0  0  0  0  0  0  0  0  0  0  0  0
   55.5500  155.3916   -4.1731 C   0  0  0  0  0  0  0  0  0  0  0  0
   53.7936  156.7768   -3.2326 C   0  0  0  0  0  0  0  0  0  0  0  0
   53.6366  155.9302   -5.5716 C   0  0  0  0  0  0  0  0  0  0  0  0
   55.4889  154.5198   -6.4406 C   0  0  0  0  0  0  0  0  0  0  0  0
   54.5508  153.4027   -6.8600 C   0  0  0  0  0  0  0  0  0  0  0  0
   53.2073  152.1707   -9.2475 C   0  0  0  0  0  0  0  0  0  0  0  0
   54.2957  151.6070   -8.3544 C   0  0  0  0  0  0  0  0  0  0  0  0
   53.1661  156.6446   -4.4616 N   0  0  0  0  0  0  0  0  0  0  0  0
   54.8743  155.2994   -5.3725 N   0  0  0  0  0  0  0  0  0  0  0  0
   53.3416  157.4150   -2.2869 O   0  0  0  0  0  0  0  0  0  0  0  0
   52.9888  155.8824   -6.6194 O   0  0  0  0  0  0  0  0  0  0  0  0
   52.3754  151.1065   -9.6933 O   0  0  0  0  0  0  0  0  0  0  0  0
   55.1388  152.6673   -7.9255 O   0  0  0  0  0  0  0  0  0  0  0  0
   55.6380  156.1361   -2.1926 H   0  0  0  0  0  0  0  0  0  0  0  0
   56.4996  154.8699   -4.1152 H   0  0  0  0  0  0  0  0  0  0  0  0
   56.4396  154.1221   -6.0716 H   0  0  0  0  0  0  0  0  0  0  0  0
   55.6838  155.1899   -7.2833 H   0  0  0  0  0  0  0  0  0  0  0  0
   53.6061  153.8220   -7.2198 H   0  0  0  0  0  0  0  0  0  0  0  0
   54.3447  152.7177   -6.0311 H   0  0  0  0  0  0  0  0  0  0  0  0
   53.6340  152.6613  -10.1276 H   0  0  0  0  0  0  0  0  0  0  0  0
   52.5872  152.8813   -8.6934 H   0  0  0  0  0  0  0  0  0  0  0  0
   54.9106  150.8791   -8.8929 H   0  0  0  0  0  0  0  0  0  0  0  0
   53.8588  151.1369   -7.4685 H   0  0  0  0  0  0  0  0  0  0  0  0
   52.2712  157.1137   -4.5704 H   0  0  0  0  0  0  0  0  0  0  0  0
   51.6941  151.5034  -10.2594 H   0  0  0  0  0  0  0  0  0  0  0  0
  1  2  2  0  0  0  0
  1  3  1  0  0  0  0
  2 10  1  0  0  0  0
  3  9  1  0  0  0  0
  3 11  2  0  0  0  0
  4  9  1  0  0  0  0
  4 10  1  0  0  0  0
  4 12  2  0  0  0  0
  5  6  1  0  0  0  0
  5 10  1  0  0  0  0
  6 14  1  0  0  0  0
  7  8  1  0  0  0  0
  7 13  1  0  0  0  0
  8 14  1  0  0  0  0
  1 15  1  0  0  0  0
  2 16  1  0  0  0  0
  5 17  1  0  0  0  0
  5 18  1  0  0  0  0
  6 19  1  0  0  0  0
  6 20  1  0  0  0  0
  7 21  1  0  0  0  0
  7 22  1  0  0  0  0
  8 23  1  0  0  0  0
  8 24  1  0  0  0  0
  9 25  1  0  0  0  0
 13 26  1  0  0  0  0
M  END
> <FRED Chemgauss4 score>
-6.791961

$$$$
C84991419	P133024252
  -OEChem-05122015073D

 27 27  0     1  0  0  0  0  0999 V2000
   57.3520  156.2483   -5.5572 C   0  0  0  0  0  0  0  0  0  0  0  0
   57.1811  155.0267   -6.1646 C   0  0  0  0  0  0  0  0  0  0  0  0
   55.4049  155.5998   -4.9927 C   0  0  0  0  0  0  0  0  0  0  0  0
   55.0282  151.6481   -7.9843 C   0  0  0  0  0  0  0  0  0  0  0  0
   55.7166  152.9425   -7.5837 C   0  0  0  0  0  0  0  0  0  0  0  0
   55.2925  153.3885   -6.1861 C   0  0  0  0  0  0  0  0  0  0  0  0
   53.9082  156.2769   -3.0832 C   0  0  0  0  0  0  0  0  0  0  0  0
   54.0218  155.4923   -4.3927 C   0  0  1  0  0  0  0  0  0  0  0  0
   56.2429  156.5992   -4.8289 N   0  0  0  0  0  0  0  0  0  0  0  0
   55.9294  154.6235   -5.7935 N   0  0  0  0  0  0  0  0  0  0  0  0
   52.7810  155.7919   -2.3190 N   0  0  0  0  0  0  0  0  0  0  0  0
   53.0788  155.9947   -5.3399 O   0  0  0  0  0  0  0  0  0  0  0  0
   58.2174  156.8930   -5.6071 H   0  0  0  0  0  0  0  0  0  0  0  0
   57.8186  154.4326   -6.8045 H   0  0  0  0  0  0  0  0  0  0  0  0
   53.9395  151.7586   -7.9578 H   0  0  0  0  0  0  0  0  0  0  0  0
   55.3050  150.8428   -7.2967 H   0  0  0  0  0  0  0  0  0  0  0  0
   55.3188  151.3462   -8.9957 H   0  0  0  0  0  0  0  0  0  0  0  0
   56.8033  152.8000   -7.6200 H   0  0  0  0  0  0  0  0  0  0  0  0
   55.4762  153.7218   -8.3169 H   0  0  0  0  0  0  0  0  0  0  0  0
   55.5475  152.6295   -5.4368 H   0  0  0  0  0  0  0  0  0  0  0  0
   54.2081  153.5419   -6.1342 H   0  0  0  0  0  0  0  0  0  0  0  0
   53.7623  157.3447   -3.2795 H   0  0  0  0  0  0  0  0  0  0  0  0
   54.8127  156.1645   -2.4754 H   0  0  0  0  0  0  0  0  0  0  0  0
   53.7718  154.4371   -4.2266 H   0  0  0  0  0  0  0  0  0  0  0  0
   51.9430  155.5301   -2.8060 H   0  0  0  0  0  0  0  0  0  0  0  0
   52.7821  155.9174   -1.3228 H   0  0  0  0  0  0  0  0  0  0  0  0
   53.3227  156.9178   -5.5055 H   0  0  0  0  0  0  0  0  0  0  0  0
  1  2  2  0  0  0  0
  1  9  1  0  0  0  0
  2 10  1  0  0  0  0
  3  8  1  0  0  0  0
  3  9  2  0  0  0  0
  3 10  1  0  0  0  0
  4  5  1  0  0  0  0
  5  6  1  0  0  0  0
  6 10  1  0  0  0  0
  7  8  1  0  0  0  0
  7 11  1  0  0  0  0
  8 12  1  0  0  0  0
  1 13  1  0  0  0  0
  2 14  1  0  0  0  0
  4 15  1  0  0  0  0
  4 16  1  0  0  0  0
  4 17  1  0  0  0  0
  5 18  1  0  0  0  0
  5 19  1  0  0  0  0
  6 20  1  0  0  0  0
  6 21  1  0  0  0  0
  7 22  1  0  0  0  0
  7 23  1  0  0  0  0
  8 24  1  0  0  0  0
 11 25  1  0  0  0  0
 11 26  1  0  0  0  0
 12 27  1  0  0  0  0
M  END
> <FRED Chemgauss4 score>
-6.789841

$$$$
C62209210	P95475553
  -OEChem-05122015073D

 41 43  0     1  0  0  0  0  0999 V2000
   57.1222  156.4151   -6.4399 C   0  0  0  0  0  0  0  0  0  0  0  0
   55.5741  154.5607   -6.4814 C   0  0  0  0  0  0  0  0  0  0  0  0
   58.1344  155.5808   -6.9140 C   0  0  0  0  0  0  0  0  0  0  0  0
   56.5863  153.7263   -6.9555 C   0  0  0  0  0  0  0  0  0  0  0  0
   55.8420  155.9051   -6.2236 C   0  0  0  0  0  0  0  0  0  0  0  0
   57.8665  154.2364   -7.1718 C   0  0  0  0  0  0  0  0  0  0  0  0
   53.5624  156.1692   -3.7390 C   0  0  0  0  0  0  0  0  0  0  0  0
   52.8299  155.5493   -4.9057 C   0  0  0  0  0  0  0  0  0  0  0  0
   55.9017  159.0365   -3.7133 C   0  0  0  0  0  0  0  0  0  0  0  0
   55.1701  158.6250   -2.4687 C   0  0  0  0  0  0  0  0  0  0  0  0
   54.7398  156.8125   -5.7076 C   0  0  1  0  0  0  0  0  0  0  0  0
   55.6047  157.5832   -3.4629 C   0  0  0  0  0  0  0  0  0  0  0  0
   53.3425  156.3234   -6.1266 C   0  0  2  0  0  0  0  0  0  0  0  0
   58.6354  152.7758   -9.0769 C   0  0  0  0  0  0  0  0  0  0  0  0
   59.2706  152.1950   -6.7074 C   0  0  0  0  0  0  0  0  0  0  0  0
   58.9490  153.3452   -7.6803 C   0  0  0  0  0  0  0  0  0  0  0  0
   54.6491  156.8719   -4.2593 N   0  0  0  0  0  0  0  0  0  0  0  0
   52.4509  157.4548   -6.4023 N   0  0  0  0  0  0  0  0  0  0  0  0
   53.2519  156.0257   -2.5657 O   0  0  0  0  0  0  0  0  0  0  0  0
   57.3401  157.4612   -6.2412 H   0  0  0  0  0  0  0  0  0  0  0  0
   54.5792  154.1554   -6.3167 H   0  0  0  0  0  0  0  0  0  0  0  0
   59.1284  155.9870   -7.0812 H   0  0  0  0  0  0  0  0  0  0  0  0
   56.3691  152.6800   -7.1536 H   0  0  0  0  0  0  0  0  0  0  0  0
   53.0509  154.4777   -4.9828 H   0  0  0  0  0  0  0  0  0  0  0  0
   51.7515  155.6867   -4.7440 H   0  0  0  0  0  0  0  0  0  0  0  0
   55.3387  159.5540   -4.4806 H   0  0  0  0  0  0  0  0  0  0  0  0
   56.9281  159.3665   -3.6103 H   0  0  0  0  0  0  0  0  0  0  0  0
   55.7046  158.6779   -1.5282 H   0  0  0  0  0  0  0  0  0  0  0  0
   54.1165  158.8673   -2.4018 H   0  0  0  0  0  0  0  0  0  0  0  0
   54.9358  157.8398   -6.0660 H   0  0  0  0  0  0  0  0  0  0  0  0
   56.4421  156.9572   -3.1745 H   0  0  0  0  0  0  0  0  0  0  0  0
   53.3808  155.6756   -6.9851 H   0  0  0  0  0  0  0  0  0  0  0  0
   57.7139  152.1834   -9.0731 H   0  0  0  0  0  0  0  0  0  0  0  0
   59.4438  152.1303   -9.4372 H   0  0  0  0  0  0  0  0  0  0  0  0
   58.5069  153.5881   -9.8010 H   0  0  0  0  0  0  0  0  0  0  0  0
   58.3835  151.5729   -6.5442 H   0  0  0  0  0  0  0  0  0  0  0  0
   59.5979  152.5742   -5.7332 H   0  0  0  0  0  0  0  0  0  0  0  0
   60.0651  151.5486   -7.0960 H   0  0  0  0  0  0  0  0  0  0  0  0
   59.8878  153.9207   -7.7908 H   0  0  0  0  0  0  0  0  0  0  0  0
   51.4682  157.3274   -6.2715 H   0  0  0  0  0  0  0  0  0  0  0  0
   52.8200  158.2396   -6.8995 H   0  0  0  0  0  0  0  0  0  0  0  0
  1  3  2  0  0  0  0
  1  5  1  0  0  0  0
  2  4  1  0  0  0  0
  2  5  2  0  0  0  0
  3  6  1  0  0  0  0
  4  6  2  0  0  0  0
  5 11  1  0  0  0  0
  6 16  1  0  0  0  0
  7  8  1  0  0  0  0
  7 17  1  0  0  0  0
  7 19  2  0  0  0  0
  8 13  1  0  0  0  0
  9 10  1  0  0  0  0
  9 12  1  0  0  0  0
 10 12  1  0  0  0  0
 11 13  1  0  0  0  0
 11 17  1  0  0  0  0
 12 17  1  0  0  0  0
 13 18  1  0  0  0  0
 14 16  1  0  0  0  0
 15 16  1  0  0  0  0
  1 20  1  0  0  0  0
  2 21  1  0  0  0  0
  3 22  1  0  0  0  0
  4 23  1  0  0  0  0
  8 24  1  0  0  0  0
  8 25  1  0  0  0  0
  9 26  1  0  0  0  0
  9 27  1  0  0  0  0
 10 28  1  0  0  0  0
 10 29  1  0  0  0  0
 11 30  1  0  0  0  0
 12 31  1  0  0  0  0
 13 32  1  0  0  0  0
 14 33  1  0  0  0  0
 14 34  1  0  0  0  0
 14 35  1  0  0  0  0
 15 36  1  0  0  0  0
 15 37  1  0  0  0  0
 15 38  1  0  0  0  0
 16 39  1  0  0  0  0
 18 40  1  0  0  0  0
 18 41  1  0  0  0  0
M  END
> <FRED Chemgauss4 score>
-6.788998

$$$$
C87303022	P136588315
  -OEChem-05122015073D

 37 38  0     1  0  0  0  0  0999 V2000
   55.4844  154.5137   -5.8237 C   0  0  0  0  0  0  0  0  0  0  0  0
   56.6748  155.2390   -5.7744 C   0  0  0  0  0  0  0  0  0  0  0  0
   54.3188  155.0482   -5.2747 C   0  0  0  0  0  0  0  0  0  0  0  0
   55.5341  157.0333   -4.6270 C   0  0  0  0  0  0  0  0  0  0  0  0
   56.6997  156.4988   -5.1761 C   0  0  0  0  0  0  0  0  0  0  0  0
   54.3437  156.3080   -4.6763 C   0  0  0  0  0  0  0  0  0  0  0  0
   59.6683  161.2039   -5.2200 C   0  0  0  0  0  0  0  0  0  0  0  0
   60.1488  161.3558   -6.5039 C   0  0  0  0  0  0  0  0  0  0  0  0
   58.8123  159.3910   -6.1091 C   0  0  0  0  0  0  0  0  0  0  0  0
   59.8999  162.1273   -4.0905 C   0  0  0  0  0  0  0  0  0  0  0  0
   60.9851  162.4242   -7.0863 C   0  0  0  0  0  0  0  0  0  0  0  0
   59.2250  156.3868   -5.0548 C   0  0  0  0  0  0  0  0  0  0  0  0
   57.5013  157.8218   -7.5159 C   0  0  0  0  0  0  0  0  0  0  0  0
   57.9727  157.2736   -5.1230 C   0  0  1  0  0  0  0  0  0  0  0  0
   58.9014  160.0780   -4.9919 N   0  0  0  0  0  0  0  0  0  0  0  0
   53.1649  156.8485   -4.1216 N   0  0  0  0  0  0  0  0  0  0  0  0
   58.1086  158.1915   -6.2415 N   0  0  0  0  0  0  0  0  0  0  0  0
   59.6269  160.0404   -7.4727 S   0  0  0  0  0  0  0  0  0  0  0  0
   55.4651  153.5327   -6.2897 H   0  0  0  0  0  0  0  0  0  0  0  0
   57.5784  154.8147   -6.2048 H   0  0  0  0  0  0  0  0  0  0  0  0
   53.3965  154.4745   -5.3188 H   0  0  0  0  0  0  0  0  0  0  0  0
   55.5552  158.0159   -4.1611 H   0  0  0  0  0  0  0  0  0  0  0  0
   59.1151  162.8992   -4.0425 H   0  0  0  0  0  0  0  0  0  0  0  0
   59.9121  161.5997   -3.1220 H   0  0  0  0  0  0  0  0  0  0  0  0
   60.8726  162.6414   -4.1706 H   0  0  0  0  0  0  0  0  0  0  0  0
   62.0570  162.1872   -6.9878 H   0  0  0  0  0  0  0  0  0  0  0  0
   60.7725  162.5777   -8.1579 H   0  0  0  0  0  0  0  0  0  0  0  0
   60.8105  163.3981   -6.5982 H   0  0  0  0  0  0  0  0  0  0  0  0
   59.2713  155.7158   -5.9196 H   0  0  0  0  0  0  0  0  0  0  0  0
   60.1395  156.9903   -5.0442 H   0  0  0  0  0  0  0  0  0  0  0  0
   59.2353  155.7710   -4.1485 H   0  0  0  0  0  0  0  0  0  0  0  0
   56.9971  156.8561   -7.4257 H   0  0  0  0  0  0  0  0  0  0  0  0
   58.2676  157.7475   -8.2923 H   0  0  0  0  0  0  0  0  0  0  0  0
   56.7683  158.5747   -7.8178 H   0  0  0  0  0  0  0  0  0  0  0  0
   57.9891  157.9201   -4.2277 H   0  0  0  0  0  0  0  0  0  0  0  0
   52.3083  156.3396   -4.2055 H   0  0  0  0  0  0  0  0  0  0  0  0
   53.1855  157.7717   -3.7379 H   0  0  0  0  0  0  0  0  0  0  0  0
  1  2  2  0  0  0  0
  1  3  1  0  0  0  0
  2  5  1  0  0  0  0
  3  6  2  0  0  0  0
  4  5  2  0  0  0  0
  4  6  1  0  0  0  0
  5 14  1  0  0  0  0
  6 16  1  0  0  0  0
  7  8  2  0  0  0  0
  7 10  1  0  0  0  0
  7 15  1  0  0  0  0
  8 11  1  0  0  0  0
  8 18  1  0  0  0  0
  9 15  2  0  0  0  0
  9 17  1  0  0  0  0
  9 18  1  0  0  0  0
 12 14  1  0  0  0  0
 13 17  1  0  0  0  0
 14 17  1  0  0  0  0
  1 19  1  0  0  0  0
  2 20  1  0  0  0  0
  3 21  1  0  0  0  0
  4 22  1  0  0  0  0
 10 23  1  0  0  0  0
 10 24  1  0  0  0  0
 10 25  1  0  0  0  0
 11 26  1  0  0  0  0
 11 27  1  0  0  0  0
 11 28  1  0  0  0  0
 12 29  1  0  0  0  0
 12 30  1  0  0  0  0
 12 31  1  0  0  0  0
 13 32  1  0  0  0  0
 13 33  1  0  0  0  0
 13 34  1  0  0  0  0
 14 35  1  0  0  0  0
 16 36  1  0  0  0  0
 16 37  1  0  0  0  0
M  END
> <FRED Chemgauss4 score>
-6.787499

$$$$
C54526614	P82058992
  -OEChem-05122015073D

 33 34  0     1  0  0  0  0  0999 V2000
   55.3821  155.4616   -3.9012 C   0  0  0  0  0  0  0  0  0  0  0  0
   54.6622  157.4955   -3.6688 C   0  0  0  0  0  0  0  0  0  0  0  0
   58.5138  155.7145   -6.7609 C   0  0  0  0  0  0  0  0  0  0  0  0
   57.1831  154.9743   -6.7975 C   0  0  0  0  0  0  0  0  0  0  0  0
   58.5935  156.6774   -5.5835 C   0  0  0  0  0  0  0  0  0  0  0  0
   55.9951  155.9324   -6.8200 C   0  0  0  0  0  0  0  0  0  0  0  0
   57.4375  157.6740   -5.5800 C   0  0  0  0  0  0  0  0  0  0  0  0
   56.0427  157.0483   -5.7607 C   0  0  0  0  0  0  0  0  0  0  0  0
   54.2369  159.7881   -2.6777 C   0  0  0  0  0  0  0  0  0  0  0  0
   54.4204  158.9226   -3.9463 C   0  0  2  0  0  0  0  0  0  0  0  0
   54.6958  155.5119   -2.7819 N   0  0  0  0  0  0  0  0  0  0  0  0
   54.2378  156.8059   -2.6340 N   0  0  0  0  0  0  0  0  0  0  0  0
   55.3869  156.6884   -4.4924 N   0  0  0  0  0  0  0  0  0  0  0  0
   53.2606  159.1385   -4.8097 N   0  0  0  0  0  0  0  0  0  0  0  0
   53.9785  161.1433   -3.0303 O   0  0  0  0  0  0  0  0  0  0  0  0
   55.8774  154.5948   -4.3151 H   0  0  0  0  0  0  0  0  0  0  0  0
   59.3348  154.9884   -6.6961 H   0  0  0  0  0  0  0  0  0  0  0  0
   58.6526  156.2675   -7.6980 H   0  0  0  0  0  0  0  0  0  0  0  0
   57.1470  154.3293   -7.6868 H   0  0  0  0  0  0  0  0  0  0  0  0
   57.1043  154.3120   -5.9254 H   0  0  0  0  0  0  0  0  0  0  0  0
   58.5936  156.1118   -4.6425 H   0  0  0  0  0  0  0  0  0  0  0  0
   59.5456  157.2250   -5.6218 H   0  0  0  0  0  0  0  0  0  0  0  0
   55.9080  156.3836   -7.8337 H   0  0  0  0  0  0  0  0  0  0  0  0
   55.0554  155.3461   -6.6985 H   0  0  0  0  0  0  0  0  0  0  0  0
   57.4630  158.2540   -4.6293 H   0  0  0  0  0  0  0  0  0  0  0  0
   57.6096  158.4369   -6.3717 H   0  0  0  0  0  0  0  0  0  0  0  0
   55.3544  157.8945   -6.1484 H   0  0  0  0  0  0  0  0  0  0  0  0
   53.3796  159.4272   -2.0989 H   0  0  0  0  0  0  0  0  0  0  0  0
   55.1270  159.7625   -2.0397 H   0  0  0  0  0  0  0  0  0  0  0  0
   55.2591  159.3708   -4.5211 H   0  0  0  0  0  0  0  0  0  0  0  0
   53.0953  158.4844   -5.5427 H   0  0  0  0  0  0  0  0  0  0  0  0
   52.8045  160.0232   -4.7672 H   0  0  0  0  0  0  0  0  0  0  0  0
   53.8736  161.6312   -2.1984 H   0  0  0  0  0  0  0  0  0  0  0  0
  1 11  2  0  0  0  0
  1 13  1  0  0  0  0
  2 10  1  0  0  0  0
  2 12  2  0  0  0  0
  2 13  1  0  0  0  0
  3  4  1  0  0  0  0
  3  5  1  0  0  0  0
  4  6  1  0  0  0  0
  5  7  1  0  0  0  0
  6  8  1  0  0  0  0
  7  8  1  0  0  0  0
  8 13  1  0  0  0  0
  9 10  1  0  0  0  0
  9 15  1  0  0  0  0
 10 14  1  0  0  0  0
 11 12  1  0  0  0  0
  1 16  1  0  0  0  0
  3 17  1  0  0  0  0
  3 18  1  0  0  0  0
  4 19  1  0  0  0  0
  4 20  1  0  0  0  0
  5 21  1  0  0  0  0
  5 22  1  0  0  0  0
  6 23  1  0  0  0  0
  6 24  1  0  0  0  0
  7 25  1  0  0  0  0
  7 26  1  0  0  0  0
  8 27  1  0  0  0  0
  9 28  1  0  0  0  0
  9 29  1  0  0  0  0
 10 30  1  0  0  0  0
 14 31  1  0  0  0  0
 14 32  1  0  0  0  0
 15 33  1  0  0  0  0
M  END
> <FRED Chemgauss4 score>
-6.784974

$$$$
C50673182	P75791398
  -OEChem-05122015073D

 33 34  0     0  0  0  0  0  0999 V2000
   55.2873  157.9592   -1.9650 C   0  0  0  0  0  0  0  0  0  0  0  0
   55.1110  160.1440   -2.8881 C   0  0  0  0  0  0  0  0  0  0  0  0
   58.5602  155.8761   -7.1528 C   0  0  0  0  0  0  0  0  0  0  0  0
   54.4679  157.4941   -2.9876 C   0  0  0  0  0  0  0  0  0  0  0  0
   55.6197  159.3081   -1.9072 C   0  0  0  0  0  0  0  0  0  0  0  0
   58.2765  154.5327   -7.2826 C   0  0  0  0  0  0  0  0  0  0  0  0
   54.0106  158.4112   -3.9200 C   0  0  0  0  0  0  0  0  0  0  0  0
   56.4843  155.1426   -6.1753 C   0  0  0  0  0  0  0  0  0  0  0  0
   59.1272  153.5332   -7.9586 C   0  0  0  0  0  0  0  0  0  0  0  0
   53.1449  158.5617   -6.2553 C   0  0  0  0  0  0  0  0  0  0  0  0
   55.1620  155.0775   -5.4672 C   0  0  0  0  0  0  0  0  0  0  0  0
   54.3122  159.7289   -3.8967 N   0  0  0  0  0  0  0  0  0  0  0  0
   57.0868  154.1102   -6.7224 N   0  0  0  0  0  0  0  0  0  0  0  0
   53.1749  157.9497   -4.9669 N   0  0  0  0  0  0  0  0  0  0  0  0
   55.3158  155.1494   -4.0071 N   0  0  0  0  0  0  0  0  0  0  0  0
   54.1609  155.2415   -1.7062 O   0  0  0  0  0  0  0  0  0  0  0  0
   52.8039  155.6701   -3.7796 O   0  0  0  0  0  0  0  0  0  0  0  0
   57.2919  156.6519   -6.2979 S   0  0  0  0  0  0  0  0  0  0  0  0
   54.0576  155.7970   -3.0492 S   0  0  0  0  0  0  0  0  0  0  0  0
   56.7269  159.9781   -0.5391 Br  0  0  0  0  0  0  0  0  0  0  0  0
   55.6649  157.2680   -1.2152 H   0  0  0  0  0  0  0  0  0  0  0  0
   55.3327  161.2070   -2.9004 H   0  0  0  0  0  0  0  0  0  0  0  0
   59.4219  156.4243   -7.5068 H   0  0  0  0  0  0  0  0  0  0  0  0
   59.8402  153.0764   -7.2529 H   0  0  0  0  0  0  0  0  0  0  0  0
   58.5324  152.7199   -8.4079 H   0  0  0  0  0  0  0  0  0  0  0  0
   59.7098  153.9767   -8.7841 H   0  0  0  0  0  0  0  0  0  0  0  0
   53.8437  159.4017   -6.2886 H   0  0  0  0  0  0  0  0  0  0  0  0
   52.1396  158.9314   -6.4749 H   0  0  0  0  0  0  0  0  0  0  0  0
   53.4279  157.8379   -7.0243 H   0  0  0  0  0  0  0  0  0  0  0  0
   54.5157  155.9050   -5.7795 H   0  0  0  0  0  0  0  0  0  0  0  0
   54.6355  154.1467   -5.7030 H   0  0  0  0  0  0  0  0  0  0  0  0
   52.5939  157.1624   -4.7623 H   0  0  0  0  0  0  0  0  0  0  0  0
   55.9537  154.4624   -3.5868 H   0  0  0  0  0  0  0  0  0  0  0  0
  1  4  1  0  0  0  0
  1  5  2  0  0  0  0
  2  5  1  0  0  0  0
  2 12  2  0  0  0  0
  3  6  2  0  0  0  0
  3 18  1  0  0  0  0
  4  7  2  0  0  0  0
  4 19  1  0  0  0  0
  5 20  1  0  0  0  0
  6  9  1  0  0  0  0
  6 13  1  0  0  0  0
  7 12  1  0  0  0  0
  7 14  1  0  0  0  0
  8 11  1  0  0  0  0
  8 13  2  0  0  0  0
  8 18  1  0  0  0  0
 10 14  1  0  0  0  0
 11 15  1  0  0  0  0
 15 19  1  0  0  0  0
 16 19  2  0  0  0  0
 17 19  2  0  0  0  0
  1 21  1  0  0  0  0
  2 22  1  0  0  0  0
  3 23  1  0  0  0  0
  9 24  1  0  0  0  0
  9 25  1  0  0  0  0
  9 26  1  0  0  0  0
 10 27  1  0  0  0  0
 10 28  1  0  0  0  0
 10 29  1  0  0  0  0
 11 30  1  0  0  0  0
 11 31  1  0  0  0  0
 14 32  1  0  0  0  0
 15 33  1  0  0  0  0
M  END
> <FRED Chemgauss4 score>
-6.782572

$$$$
C37730086	P56098235
  -OEChem-05122015073D

 21 21  0     0  0  0  0  0  0999 V2000
   57.3389  154.1074   -6.6061 C   0  0  0  0  0  0  0  0  0  0  0  0
   59.3716  154.4545   -6.2822 C   0  0  0  0  0  0  0  0  0  0  0  0
   55.5392  156.8198   -5.6749 C   0  0  0  0  0  0  0  0  0  0  0  0
   53.7290  158.3753   -4.9960 C   0  0  0  0  0  0  0  0  0  0  0  0
   56.3997  156.5342   -6.8912 C   0  0  0  0  0  0  0  0  0  0  0  0
   58.5188  153.4606   -6.3738 N   0  0  0  0  0  0  0  0  0  0  0  0
   58.7186  155.6351   -6.4538 N   0  0  0  0  0  0  0  0  0  0  0  0
   57.4080  155.4391   -6.6641 N   0  0  0  0  0  0  0  0  0  0  0  0
   60.6886  154.2512   -6.0497 N   0  0  0  0  0  0  0  0  0  0  0  0
   52.9937  159.4205   -5.5277 N   0  0  0  0  0  0  0  0  0  0  0  0
   54.6542  157.8733   -5.9160 N   0  0  0  0  0  0  0  0  0  0  0  0
   55.6232  156.1931   -4.6222 O   0  0  0  0  0  0  0  0  0  0  0  0
   53.5676  157.9590   -3.8504 O   0  0  0  0  0  0  0  0  0  0  0  0
   56.4073  153.5712   -6.7352 H   0  0  0  0  0  0  0  0  0  0  0  0
   55.7445  156.2653   -7.7294 H   0  0  0  0  0  0  0  0  0  0  0  0
   56.9170  157.4573   -7.1821 H   0  0  0  0  0  0  0  0  0  0  0  0
   61.0751  153.3112   -5.8870 H   0  0  0  0  0  0  0  0  0  0  0  0
   61.3483  155.0323   -5.9311 H   0  0  0  0  0  0  0  0  0  0  0  0
   53.1754  159.7172   -6.4807 H   0  0  0  0  0  0  0  0  0  0  0  0
   52.2782  159.8977   -4.9900 H   0  0  0  0  0  0  0  0  0  0  0  0
   54.6855  158.3098   -6.8337 H   0  0  0  0  0  0  0  0  0  0  0  0
  1  6  2  0  0  0  0
  1  8  1  0  0  0  0
  2  6  1  0  0  0  0
  2  7  2  0  0  0  0
  2  9  1  0  0  0  0
  3  5  1  0  0  0  0
  3 11  1  0  0  0  0
  3 12  2  0  0  0  0
  4 10  1  0  0  0  0
  4 11  1  0  0  0  0
  4 13  2  0  0  0  0
  5  8  1  0  0  0  0
  7  8  1  0  0  0  0
  1 14  1  0  0  0  0
  5 15  1  0  0  0  0
  5 16  1  0  0  0  0
  9 17  1  0  0  0  0
  9 18  1  0  0  0  0
 10 19  1  0  0  0  0
 10 20  1  0  0  0  0
 11 21  1  0  0  0  0
M  END
> <FRED Chemgauss4 score>
-6.782551

$$$$
C87344280	P136645279
  -OEChem-05122015073D

 23 24  0     1  0  0  0  0  0999 V2000
   57.0601  159.7538   -0.4276 C   0  0  0  0  0  0  0  0  0  0  0  0
   57.9504  159.4806   -1.4392 C   0  0  0  0  0  0  0  0  0  0  0  0
   55.0123  157.5444   -2.3375 C   0  0  0  0  0  0  0  0  0  0  0  0
   56.0435  158.4162   -1.7343 C   0  0  0  0  0  0  0  0  0  0  0  0
   54.0153  156.2119   -3.6520 C   0  0  0  0  0  0  0  0  0  0  0  0
   53.3604  153.8797   -4.3763 C   0  0  0  0  0  0  0  0  0  0  0  0
   53.7178  155.2968   -4.8174 C   0  0  1  0  0  0  0  0  0  0  0  0
   53.7891  157.3431   -1.8093 N   0  5  0  0  0  0  0  0  0  0  0  0
   55.8751  159.0880   -0.6171 N   0  0  0  0  0  0  0  0  0  0  0  0
   55.1763  156.8569   -3.4757 N   0  0  0  0  0  0  0  0  0  0  0  0
   53.1441  156.4801   -2.6597 N   0  0  0  0  0  0  0  0  0  0  0  0
   57.2852  158.6220   -2.2683 N   0  0  0  0  0  0  0  0  0  0  0  0
   52.6108  155.8068   -5.6837 N   0  3  0  0  0  0  0  0  0  0  0  0
   57.2125  160.3961    0.4271 H   0  0  0  0  0  0  0  0  0  0  0  0
   58.9609  159.8057   -1.6387 H   0  0  0  0  0  0  0  0  0  0  0  0
   52.4934  153.8634   -3.7065 H   0  0  0  0  0  0  0  0  0  0  0  0
   53.1233  153.2504   -5.2415 H   0  0  0  0  0  0  0  0  0  0  0  0
   54.1987  153.4145   -3.8457 H   0  0  0  0  0  0  0  0  0  0  0  0
   54.5882  155.2469   -5.4822 H   0  0  0  0  0  0  0  0  0  0  0  0
   57.6475  158.2154   -3.1207 H   0  0  0  0  0  0  0  0  0  0  0  0
   52.9668  156.0462   -6.6107 H   0  0  0  0  0  0  0  0  0  0  0  0
   52.1928  156.6420   -5.2697 H   0  0  0  0  0  0  0  0  0  0  0  0
   51.8846  155.0960   -5.7871 H   0  0  0  0  0  0  0  0  0  0  0  0
  1  2  2  0  0  0  0
  1  9  1  0  0  0  0
  2 12  1  0  0  0  0
  3  4  1  0  0  0  0
  3  8  1  0  0  0  0
  3 10  2  0  0  0  0
  4  9  2  0  0  0  0
  4 12  1  0  0  0  0
  5  7  1  0  0  0  0
  5 10  1  0  0  0  0
  5 11  2  0  0  0  0
  6  7  1  0  0  0  0
  7 13  1  0  0  0  0
  8 11  1  0  0  0  0
  1 14  1  0  0  0  0
  2 15  1  0  0  0  0
  6 16  1  0  0  0  0
  6 17  1  0  0  0  0
  6 18  1  0  0  0  0
  7 19  1  0  0  0  0
 12 20  1  0  0  0  0
 13 21  1  0  0  0  0
 13 22  1  0  0  0  0
 13 23  1  0  0  0  0
M  CHG  2   8  -1  13   1
M  END
> <FRED Chemgauss4 score>
-6.780467

$$$$
C06184878	P09576514
  -OEChem-05122015073D

 35 35  0     1  0  0  0  0  0999 V2000
   58.2196  156.6008   -7.6543 C   0  0  1  0  0  0  0  0  0  0  0  0
   59.3016  155.5319   -7.4614 C   0  0  2  0  0  0  0  0  0  0  0  0
   57.1663  156.5464   -6.5460 C   0  0  1  0  0  0  0  0  0  0  0  0
   58.6445  154.1573   -7.2639 C   0  0  1  0  0  0  0  0  0  0  0  0
   56.6275  155.1193   -6.4230 C   0  0  1  0  0  0  0  0  0  0  0  0
   59.6485  153.0569   -6.9416 C   0  0  0  0  0  0  0  0  0  0  0  0
   53.8927  156.2727   -3.4013 C   0  0  0  0  0  0  0  0  0  0  0  0
   54.4188  155.5773   -5.7638 C   0  0  0  0  0  0  0  0  0  0  0  0
   53.4265  155.4735   -4.6112 C   0  0  2  0  0  0  0  0  0  0  0  0
   57.6982  154.2014   -6.1854 O   0  0  0  0  0  0  0  0  0  0  0  0
   58.8156  157.8899   -7.7276 O   0  0  0  0  0  0  0  0  0  0  0  0
   60.1008  155.8687   -6.3275 O   0  0  0  0  0  0  0  0  0  0  0  0
   57.7542  156.9410   -5.3049 O   0  0  0  0  0  0  0  0  0  0  0  0
   60.3324  153.4033   -5.7506 O   0  0  0  0  0  0  0  0  0  0  0  0
   52.9171  156.1618   -2.3704 O   0  0  0  0  0  0  0  0  0  0  0  0
   52.1713  156.0092   -5.0366 O   0  0  0  0  0  0  0  0  0  0  0  0
   55.6845  155.0790   -5.3562 O   0  0  0  0  0  0  0  0  0  0  0  0
   57.7251  156.4184   -8.6169 H   0  0  0  0  0  0  0  0  0  0  0  0
   59.9700  155.5264   -8.3303 H   0  0  0  0  0  0  0  0  0  0  0  0
   56.3578  157.2588   -6.7443 H   0  0  0  0  0  0  0  0  0  0  0  0
   58.1088  153.8733   -8.1791 H   0  0  0  0  0  0  0  0  0  0  0  0
   56.1030  154.8321   -7.3430 H   0  0  0  0  0  0  0  0  0  0  0  0
   60.3692  152.9591   -7.7542 H   0  0  0  0  0  0  0  0  0  0  0  0
   59.1299  152.1088   -6.7954 H   0  0  0  0  0  0  0  0  0  0  0  0
   54.0043  157.3342   -3.6459 H   0  0  0  0  0  0  0  0  0  0  0  0
   54.8402  155.8849   -3.0142 H   0  0  0  0  0  0  0  0  0  0  0  0
   54.5516  156.6139   -6.0889 H   0  0  0  0  0  0  0  0  0  0  0  0
   54.0934  154.9775   -6.6197 H   0  0  0  0  0  0  0  0  0  0  0  0
   53.2464  154.4281   -4.3365 H   0  0  0  0  0  0  0  0  0  0  0  0
   59.4197  157.8755   -8.4872 H   0  0  0  0  0  0  0  0  0  0  0  0
   60.7670  155.1698   -6.2447 H   0  0  0  0  0  0  0  0  0  0  0  0
   58.0769  157.8456   -5.4316 H   0  0  0  0  0  0  0  0  0  0  0  0
   60.9649  152.6882   -5.5669 H   0  0  0  0  0  0  0  0  0  0  0  0
   53.2462  156.6807   -1.6196 H   0  0  0  0  0  0  0  0  0  0  0  0
   52.3338  156.9372   -5.2613 H   0  0  0  0  0  0  0  0  0  0  0  0
  1  2  1  0  0  0  0
  1  3  1  0  0  0  0
  1 11  1  0  0  0  0
  2  4  1  0  0  0  0
  2 12  1  0  0  0  0
  3  5  1  0  0  0  0
  3 13  1  0  0  0  0
  4  6  1  0  0  0  0
  4 10  1  0  0  0  0
  5 10  1  0  0  0  0
  5 17  1  0  0  0  0
  6 14  1  0  0  0  0
  7  9  1  0  0  0  0
  7 15  1  0  0  0  0
  8  9  1  0  0  0  0
  8 17  1  0  0  0  0
  9 16  1  0  0  0  0
  1 18  1  0  0  0  0
  2 19  1  0  0  0  0
  3 20  1  0  0  0  0
  4 21  1  0  0  0  0
  5 22  1  0  0  0  0
  6 23  1  0  0  0  0
  6 24  1  0  0  0  0
  7 25  1  0  0  0  0
  7 26  1  0  0  0  0
  8 27  1  0  0  0  0
  8 28  1  0  0  0  0
  9 29  1  0  0  0  0
 11 30  1  0  0  0  0
 12 31  1  0  0  0  0
 13 32  1  0  0  0  0
 14 33  1  0  0  0  0
 15 34  1  0  0  0  0
 16 35  1  0  0  0  0
M  END
> <FRED Chemgauss4 score>
-6.780038

$$$$
C45064847	P67934202
  -OEChem-05122015073D

 41 42  0     1  0  0  0  0  0999 V2000
   56.7530  158.6260   -3.2721 C   0  0  0  0  0  0  0  0  0  0  0  0
   55.4066  158.1572   -2.8884 C   0  0  0  0  0  0  0  0  0  0  0  0
   60.1320  162.1773   -5.3986 C   0  0  0  0  0  0  0  0  0  0  0  0
   58.9688  161.4846   -6.1106 C   0  0  0  0  0  0  0  0  0  0  0  0
   57.8228  161.1268   -0.7308 C   0  0  0  0  0  0  0  0  0  0  0  0
   60.2090  161.5550   -4.0078 C   0  0  0  0  0  0  0  0  0  0  0  0
   58.4140  160.4659   -5.1204 C   0  0  0  0  0  0  0  0  0  0  0  0
   59.1354  160.5909   -1.2878 C   0  0  0  0  0  0  0  0  0  0  0  0
   56.8066  160.0907   -1.1879 C   0  0  0  0  0  0  0  0  0  0  0  0
   58.7983  161.0314   -3.7569 C   0  0  0  0  0  0  0  0  0  0  0  0
   58.7308  160.0030   -2.6415 C   0  0  2  0  0  0  0  0  0  0  0  0
   53.2606  155.6862   -4.7536 C   0  0  0  0  0  0  0  0  0  0  0  0
   53.5891  156.6491   -3.6251 C   0  0  0  0  0  0  0  0  0  0  0  0
   57.3586  159.5367   -2.4245 N   0  0  0  0  0  0  0  0  0  0  0  0
   51.9553  155.1006   -4.6047 N   0  0  0  0  0  0  0  0  0  0  0  0
   54.8929  157.2508   -3.7890 N   0  0  0  0  0  0  0  0  0  0  0  0
   57.2578  158.1868   -4.3051 O   0  0  0  0  0  0  0  0  0  0  0  0
   54.8770  158.5733   -1.8693 O   0  0  0  0  0  0  0  0  0  0  0  0
   61.0741  162.0531   -5.9424 H   0  0  0  0  0  0  0  0  0  0  0  0
   59.9346  163.2532   -5.3259 H   0  0  0  0  0  0  0  0  0  0  0  0
   58.2010  162.2229   -6.3688 H   0  0  0  0  0  0  0  0  0  0  0  0
   59.2877  161.0042   -7.0410 H   0  0  0  0  0  0  0  0  0  0  0  0
   57.8379  161.2478    0.3559 H   0  0  0  0  0  0  0  0  0  0  0  0
   57.5950  162.1015   -1.1779 H   0  0  0  0  0  0  0  0  0  0  0  0
   60.9359  160.7335   -4.0106 H   0  0  0  0  0  0  0  0  0  0  0  0
   60.5253  162.2799   -3.2513 H   0  0  0  0  0  0  0  0  0  0  0  0
   57.3329  160.3357   -5.2289 H   0  0  0  0  0  0  0  0  0  0  0  0
   58.8886  159.4910   -5.2874 H   0  0  0  0  0  0  0  0  0  0  0  0
   59.9123  161.3579   -1.3572 H   0  0  0  0  0  0  0  0  0  0  0  0
   59.5055  159.7915   -0.6337 H   0  0  0  0  0  0  0  0  0  0  0  0
   56.7186  159.2725   -0.4649 H   0  0  0  0  0  0  0  0  0  0  0  0
   55.8152  160.5177   -1.3647 H   0  0  0  0  0  0  0  0  0  0  0  0
   58.1366  161.8745   -3.5149 H   0  0  0  0  0  0  0  0  0  0  0  0
   59.3641  159.1496   -2.9070 H   0  0  0  0  0  0  0  0  0  0  0  0
   53.9835  154.8657   -4.8018 H   0  0  0  0  0  0  0  0  0  0  0  0
   53.2682  156.2141   -5.7123 H   0  0  0  0  0  0  0  0  0  0  0  0
   52.8599  157.4646   -3.5986 H   0  0  0  0  0  0  0  0  0  0  0  0
   53.5798  156.1435   -2.6541 H   0  0  0  0  0  0  0  0  0  0  0  0
   51.6390  154.8329   -3.6864 H   0  0  0  0  0  0  0  0  0  0  0  0
   51.4642  154.7809   -5.4244 H   0  0  0  0  0  0  0  0  0  0  0  0
   55.4511  156.9957   -4.5986 H   0  0  0  0  0  0  0  0  0  0  0  0
  1  2  1  0  0  0  0
  1 14  1  0  0  0  0
  1 17  2  0  0  0  0
  2 16  1  0  0  0  0
  2 18  2  0  0  0  0
  3  4  1  0  0  0  0
  3  6  1  0  0  0  0
  4  7  1  0  0  0  0
  5  8  1  0  0  0  0
  5  9  1  0  0  0  0
  6 10  1  0  0  0  0
  7 10  1  0  0  0  0
  8 11  1  0  0  0  0
  9 14  1  0  0  0  0
 10 11  1  0  0  0  0
 11 14  1  0  0  0  0
 12 13  1  0  0  0  0
 12 15  1  0  0  0  0
 13 16  1  0  0  0  0
  3 19  1  0  0  0  0
  3 20  1  0  0  0  0
  4 21  1  0  0  0  0
  4 22  1  0  0  0  0
  5 23  1  0  0  0  0
  5 24  1  0  0  0  0
  6 25  1  0  0  0  0
  6 26  1  0  0  0  0
  7 27  1  0  0  0  0
  7 28  1  0  0  0  0
  8 29  1  0  0  0  0
  8 30  1  0  0  0  0
  9 31  1  0  0  0  0
  9 32  1  0  0  0  0
 10 33  1  0  0  0  0
 11 34  1  0  0  0  0
 12 35  1  0  0  0  0
 12 36  1  0  0  0  0
 13 37  1  0  0  0  0
 13 38  1  0  0  0  0
 15 39  1  0  0  0  0
 15 40  1  0  0  0  0
 16 41  1  0  0  0  0
M  END
> <FRED Chemgauss4 score>
-6.779504

$$$$
C42613227	P89359521
  -OEChem-05122015073D

 39 39  0     0  0  0  0  0  0999 V2000
   55.8559  155.5568   -4.7667 C   0  0  0  0  0  0  0  0  0  0  0  0
   54.9700  155.5629   -3.9554 C   0  0  0  0  0  0  0  0  0  0  0  0
   57.7027  154.4664   -6.0209 C   0  0  0  0  0  0  0  0  0  0  0  0
   58.6669  154.7652   -7.0265 C   0  0  0  0  0  0  0  0  0  0  0  0
   56.9058  155.5515   -5.7295 C   0  0  0  0  0  0  0  0  0  0  0  0
   58.5700  156.0675   -7.4655 C   0  0  0  0  0  0  0  0  0  0  0  0
   59.3736  156.7602   -8.4851 C   0  0  0  0  0  0  0  0  0  0  0  0
   60.2644  159.4894   -6.8257 C   0  0  0  0  0  0  0  0  0  0  0  0
   61.2720  162.3858   -5.6991 C   0  0  0  0  0  0  0  0  0  0  0  0
   59.6427  161.6630   -3.9190 C   0  0  0  0  0  0  0  0  0  0  0  0
   61.6583  157.5312   -8.9947 C   0  0  0  0  0  0  0  0  0  0  0  0
   53.8935  155.5695   -2.9659 C   0  0  0  0  0  0  0  0  0  0  0  0
   60.7223  158.0544   -6.7701 C   0  0  0  0  0  0  0  0  0  0  0  0
   60.0771  161.5033   -5.3685 C   0  0  0  0  0  0  0  0  0  0  0  0
   52.7252  156.2293   -3.4777 N   0  0  0  0  0  0  0  0  0  0  0  0
   60.4304  160.1215   -5.6016 N   0  0  0  0  0  0  0  0  0  0  0  0
   60.5315  157.4245   -8.0848 N   0  0  0  0  0  0  0  0  0  0  0  0
   58.9630  156.6890   -9.6429 O   0  0  0  0  0  0  0  0  0  0  0  0
   59.8075  160.0143   -7.8377 O   0  0  0  0  0  0  0  0  0  0  0  0
   57.3208  156.9236   -6.6662 S   0  0  0  0  0  0  0  0  0  0  0  0
   57.6070  153.4996   -5.5420 H   0  0  0  0  0  0  0  0  0  0  0  0
   59.3917  154.0558   -7.4055 H   0  0  0  0  0  0  0  0  0  0  0  0
   62.1214  162.1515   -5.0492 H   0  0  0  0  0  0  0  0  0  0  0  0
   61.5912  162.2538   -6.7390 H   0  0  0  0  0  0  0  0  0  0  0  0
   61.0229  163.4440   -5.5633 H   0  0  0  0  0  0  0  0  0  0  0  0
   60.4646  161.4164   -3.2379 H   0  0  0  0  0  0  0  0  0  0  0  0
   58.8015  161.0010   -3.6888 H   0  0  0  0  0  0  0  0  0  0  0  0
   59.3353  162.6926   -3.7042 H   0  0  0  0  0  0  0  0  0  0  0  0
   61.5710  158.4397   -9.5961 H   0  0  0  0  0  0  0  0  0  0  0  0
   61.6865  156.6673   -9.6643 H   0  0  0  0  0  0  0  0  0  0  0  0
   62.5955  157.5698   -8.4329 H   0  0  0  0  0  0  0  0  0  0  0  0
   54.2003  156.0981   -2.0587 H   0  0  0  0  0  0  0  0  0  0  0  0
   53.6023  154.5516   -2.6913 H   0  0  0  0  0  0  0  0  0  0  0  0
   61.7824  158.0160   -6.5028 H   0  0  0  0  0  0  0  0  0  0  0  0
   60.1402  157.5080   -6.0222 H   0  0  0  0  0  0  0  0  0  0  0  0
   59.2407  161.7548   -6.0299 H   0  0  0  0  0  0  0  0  0  0  0  0
   52.8346  157.0497   -4.0540 H   0  0  0  0  0  0  0  0  0  0  0  0
   51.8206  155.9961   -3.0972 H   0  0  0  0  0  0  0  0  0  0  0  0
   60.8197  159.5862   -4.8309 H   0  0  0  0  0  0  0  0  0  0  0  0
  1  2  3  0  0  0  0
  1  5  1  0  0  0  0
  2 12  1  0  0  0  0
  3  4  1  0  0  0  0
  3  5  2  0  0  0  0
  4  6  2  0  0  0  0
  5 20  1  0  0  0  0
  6  7  1  0  0  0  0
  6 20  1  0  0  0  0
  7 17  1  0  0  0  0
  7 18  2  0  0  0  0
  8 13  1  0  0  0  0
  8 16  1  0  0  0  0
  8 19  2  0  0  0  0
  9 14  1  0  0  0  0
 10 14  1  0  0  0  0
 11 17  1  0  0  0  0
 12 15  1  0  0  0  0
 13 17  1  0  0  0  0
 14 16  1  0  0  0  0
  3 21  1  0  0  0  0
  4 22  1  0  0  0  0
  9 23  1  0  0  0  0
  9 24  1  0  0  0  0
  9 25  1  0  0  0  0
 10 26  1  0  0  0  0
 10 27  1  0  0  0  0
 10 28  1  0  0  0  0
 11 29  1  0  0  0  0
 11 30  1  0  0  0  0
 11 31  1  0  0  0  0
 12 32  1  0  0  0  0
 12 33  1  0  0  0  0
 13 34  1  0  0  0  0
 13 35  1  0  0  0  0
 14 36  1  0  0  0  0
 15 37  1  0  0  0  0
 15 38  1  0  0  0  0
 16 39  1  0  0  0  0
M  END
> <FRED Chemgauss4 score>
-6.779359

$$$$
C93827756	P147015387
  -OEChem-05122015073D

 49 50  0     1  0  0  0  0  0999 V2000
   53.5274  155.9615   -3.5833 C   0  0  0  0  0  0  0  0  0  0  0  0
   55.0680  157.9881   -5.6332 C   0  0  0  0  0  0  0  0  0  0  0  0
   54.1544  156.7885   -5.8607 C   0  0  0  0  0  0  0  0  0  0  0  0
   55.9251  156.2198   -4.2496 C   0  0  0  0  0  0  0  0  0  0  0  0
   56.5909  159.1939   -3.7297 C   0  0  0  0  0  0  0  0  0  0  0  0
   59.0267  160.0073   -4.8944 C   0  0  0  0  0  0  0  0  0  0  0  0
   56.3728  157.3221   -5.2152 C   0  0  2  0  0  0  0  0  0  0  0  0
   58.0991  159.0150   -5.6141 C   0  0  1  0  0  0  0  0  0  0  0  0
   57.5658  160.1646   -3.0593 C   0  0  2  0  0  0  0  0  0  0  0  0
   54.5086  155.8245   -4.7154 C   0  0  1  0  0  0  0  0  0  0  0  0
   56.8266  161.1731   -2.1903 C   0  0  0  0  0  0  0  0  0  0  0  0
   59.9139  157.2986   -5.7094 C   0  0  0  0  0  0  0  0  0  0  0  0
   55.2390  152.7400   -6.6767 C   0  0  0  0  0  0  0  0  0  0  0  0
   58.9499  158.1084   -6.5095 C   0  0  0  0  0  0  0  0  0  0  0  0
   55.3282  154.1630   -6.2412 C   0  0  0  0  0  0  0  0  0  0  0  0
   57.3193  158.2602   -4.6077 N   0  0  1  0  0  0  0  0  0  0  0  0
   52.2280  155.6877   -3.9394 N   0  0  0  0  0  0  0  0  0  0  0  0
   54.4243  154.4304   -5.1310 N   0  0  0  0  0  0  0  0  0  0  0  0
   53.8795  156.2738   -2.4484 O   0  0  0  0  0  0  0  0  0  0  0  0
   58.2781  160.8923   -4.0623 O   0  0  0  0  0  0  0  0  0  0  0  0
   55.1787  158.5978   -6.5352 H   0  0  0  0  0  0  0  0  0  0  0  0
   54.6675  158.6248   -4.8346 H   0  0  0  0  0  0  0  0  0  0  0  0
   53.0996  157.0825   -5.8785 H   0  0  0  0  0  0  0  0  0  0  0  0
   54.3894  156.3467   -6.8383 H   0  0  0  0  0  0  0  0  0  0  0  0
   56.6339  155.3831   -4.2773 H   0  0  0  0  0  0  0  0  0  0  0  0
   55.9109  156.5818   -3.2129 H   0  0  0  0  0  0  0  0  0  0  0  0
   56.0554  158.6348   -2.9528 H   0  0  0  0  0  0  0  0  0  0  0  0
   55.8481  159.7534   -4.3146 H   0  0  0  0  0  0  0  0  0  0  0  0
   59.7854  159.4941   -4.2896 H   0  0  0  0  0  0  0  0  0  0  0  0
   59.5575  160.6259   -5.6264 H   0  0  0  0  0  0  0  0  0  0  0  0
   56.8391  156.8578   -6.0954 H   0  0  0  0  0  0  0  0  0  0  0  0
   57.4082  159.5882   -6.2479 H   0  0  0  0  0  0  0  0  0  0  0  0
   58.2849  159.6215   -2.4320 H   0  0  0  0  0  0  0  0  0  0  0  0
   56.1049  161.7266   -2.7916 H   0  0  0  0  0  0  0  0  0  0  0  0
   57.5339  161.8772   -1.7511 H   0  0  0  0  0  0  0  0  0  0  0  0
   56.2969  160.6581   -1.3884 H   0  0  0  0  0  0  0  0  0  0  0  0
   60.5750  157.9691   -5.1477 H   0  0  0  0  0  0  0  0  0  0  0  0
   60.5362  156.6744   -6.3593 H   0  0  0  0  0  0  0  0  0  0  0  0
   59.3884  156.6599   -4.9916 H   0  0  0  0  0  0  0  0  0  0  0  0
   55.5105  152.0634   -5.8591 H   0  0  0  0  0  0  0  0  0  0  0  0
   54.2277  152.5005   -7.0229 H   0  0  0  0  0  0  0  0  0  0  0  0
   55.9325  152.5617   -7.5072 H   0  0  0  0  0  0  0  0  0  0  0  0
   58.2880  157.4472   -7.0718 H   0  0  0  0  0  0  0  0  0  0  0  0
   59.4923  158.7289   -7.2252 H   0  0  0  0  0  0  0  0  0  0  0  0
   55.0559  154.8331   -7.0622 H   0  0  0  0  0  0  0  0  0  0  0  0
   56.3426  154.4048   -5.9106 H   0  0  0  0  0  0  0  0  0  0  0  0
   52.0314  155.4240   -4.8993 H   0  0  0  0  0  0  0  0  0  0  0  0
   51.4576  155.7388   -3.2808 H   0  0  0  0  0  0  0  0  0  0  0  0
   54.6717  153.8309   -4.3445 H   0  0  0  0  0  0  0  0  0  0  0  0
  1 10  1  0  0  0  0
  1 17  1  0  0  0  0
  1 19  2  0  0  0  0
  2  3  1  0  0  0  0
  2  7  1  0  0  0  0
  3 10  1  0  0  0  0
  4  7  1  0  0  0  0
  4 10  1  0  0  0  0
  5  9  1  0  0  0  0
  5 16  1  0  0  0  0
  6  8  1  0  0  0  0
  6 20  1  0  0  0  0
  7 16  1  0  0  0  0
  8 14  1  0  0  0  0
  8 16  1  0  0  0  0
  9 11  1  0  0  0  0
  9 20  1  0  0  0  0
 10 18  1  0  0  0  0
 12 14  1  0  0  0  0
 13 15  1  0  0  0  0
 15 18  1  0  0  0  0
  2 21  1  0  0  0  0
  2 22  1  0  0  0  0
  3 23  1  0  0  0  0
  3 24  1  0  0  0  0
  4 25  1  0  0  0  0
  4 26  1  0  0  0  0
  5 27  1  0  0  0  0
  5 28  1  0  0  0  0
  6 29  1  0  0  0  0
  6 30  1  0  0  0  0
  7 31  1  0  0  0  0
  8 32  1  0  0  0  0
  9 33  1  0  0  0  0
 11 34  1  0  0  0  0
 11 35  1  0  0  0  0
 11 36  1  0  0  0  0
 12 37  1  0  0  0  0
 12 38  1  0  0  0  0
 12 39  1  0  0  0  0
 13 40  1  0  0  0  0
 13 41  1  0  0  0  0
 13 42  1  0  0  0  0
 14 43  1  0  0  0  0
 14 44  1  0  0  0  0
 15 45  1  0  0  0  0
 15 46  1  0  0  0  0
 17 47  1  0  0  0  0
 17 48  1  0  0  0  0
 18 49  1  0  0  0  0
M  END
> <FRED Chemgauss4 score>
-6.776277

$$$$
C86057603	P134789567
  -OEChem-05122015073D

 23 23  0     1  0  0  0  0  0999 V2000
   54.7987  156.7547   -2.4886 C   0  0  0  0  0  0  0  0  0  0  0  0
   54.3390  156.5569   -4.5151 C   0  0  0  0  0  0  0  0  0  0  0  0
   54.4886  154.8203   -6.3095 C   0  0  0  0  0  0  0  0  0  0  0  0
   55.6434  154.1608   -6.5271 C   0  0  0  0  0  0  0  0  0  0  0  0
   55.7634  152.6919   -6.8198 C   0  0  0  0  0  0  0  0  0  0  0  0
   56.9571  154.8965   -6.5006 C   0  0  0  0  0  0  0  0  0  0  0  0
   54.3056  156.2918   -6.0113 C   0  0  1  0  0  0  0  0  0  0  0  0
   55.3229  156.3306   -3.6760 N   0  0  0  0  0  0  0  0  0  0  0  0
   53.5523  157.2292   -2.5402 N   0  0  0  0  0  0  0  0  0  0  0  0
   53.2817  157.0915   -3.8471 N   0  0  0  0  0  0  0  0  0  0  0  0
   53.0580  156.7888   -6.6136 N   0  0  0  0  0  0  0  0  0  0  0  0
   55.3422  156.7168   -1.5563 H   0  0  0  0  0  0  0  0  0  0  0  0
   53.5640  154.2437   -6.3616 H   0  0  0  0  0  0  0  0  0  0  0  0
   55.7145  152.5190   -7.9005 H   0  0  0  0  0  0  0  0  0  0  0  0
   54.9732  152.0889   -6.3682 H   0  0  0  0  0  0  0  0  0  0  0  0
   56.7238  152.3136   -6.4548 H   0  0  0  0  0  0  0  0  0  0  0  0
   57.4045  154.9178   -5.5011 H   0  0  0  0  0  0  0  0  0  0  0  0
   56.8180  155.9333   -6.8241 H   0  0  0  0  0  0  0  0  0  0  0  0
   57.6738  154.4148   -7.1741 H   0  0  0  0  0  0  0  0  0  0  0  0
   55.1030  156.8719   -6.4875 H   0  0  0  0  0  0  0  0  0  0  0  0
   52.3753  157.3784   -4.1978 H   0  0  0  0  0  0  0  0  0  0  0  0
   52.7874  156.4059   -7.4873 H   0  0  0  0  0  0  0  0  0  0  0  0
   52.6610  157.6123   -6.2294 H   0  0  0  0  0  0  0  0  0  0  0  0
  1  8  1  0  0  0  0
  1  9  2  0  0  0  0
  2  7  1  0  0  0  0
  2  8  2  0  0  0  0
  2 10  1  0  0  0  0
  3  4  2  0  0  0  0
  3  7  1  0  0  0  0
  4  5  1  0  0  0  0
  4  6  1  0  0  0  0
  7 11  1  0  0  0  0
  9 10  1  0  0  0  0
  1 12  1  0  0  0  0
  3 13  1  0  0  0  0
  5 14  1  0  0  0  0
  5 15  1  0  0  0  0
  5 16  1  0  0  0  0
  6 17  1  0  0  0  0
  6 18  1  0  0  0  0
  6 19  1  0  0  0  0
  7 20  1  0  0  0  0
 10 21  1  0  0  0  0
 11 22  1  0  0  0  0
 11 23  1  0  0  0  0
M  END
> <FRED Chemgauss4 score>
-6.775718

$$$$
C49184176	P73460942
  -OEChem-05122015073D

 39 40  0     0  0  0  0  0  0999 V2000
   59.8439  157.7542   -7.7566 C   0  0  0  0  0  0  0  0  0  0  0  0
   61.1274  158.2307   -7.9079 C   0  0  0  0  0  0  0  0  0  0  0  0
   60.9654  155.8319   -8.4269 C   0  0  0  0  0  0  0  0  0  0  0  0
   59.7499  156.3646   -8.0571 C   0  0  0  0  0  0  0  0  0  0  0  0
   55.6262  155.1720   -5.6611 C   0  0  0  0  0  0  0  0  0  0  0  0
   55.7872  155.6335   -4.3958 C   0  0  0  0  0  0  0  0  0  0  0  0
   54.2553  155.0133   -6.2277 C   0  0  0  0  0  0  0  0  0  0  0  0
   53.3437  155.8370   -4.0860 C   0  0  0  0  0  0  0  0  0  0  0  0
   54.7221  160.0500   -3.0545 C   0  0  0  0  0  0  0  0  0  0  0  0
   58.4683  155.5717   -7.9798 C   0  0  0  0  0  0  0  0  0  0  0  0
   54.8735  156.4566   -2.2574 C   0  0  0  0  0  0  0  0  0  0  0  0
   57.8362  155.5957   -6.5903 C   0  0  0  0  0  0  0  0  0  0  0  0
   55.3247  157.9050   -2.3071 C   0  0  0  0  0  0  0  0  0  0  0  0
   53.2242  155.3615   -5.3843 N   0  0  0  0  0  0  0  0  0  0  0  0
   54.6608  155.9615   -3.6190 N   0  0  0  0  0  0  0  0  0  0  0  0
   57.0649  155.7749   -3.8895 N   0  0  0  0  0  0  0  0  0  0  0  0
   56.6324  154.8181   -6.5196 N   0  0  0  0  0  0  0  0  0  0  0  0
   54.0747  154.5994   -7.3711 O   0  0  0  0  0  0  0  0  0  0  0  0
   52.3387  156.1177   -3.4278 O   0  0  0  0  0  0  0  0  0  0  0  0
   54.3411  158.6833   -2.9769 O   0  0  0  0  0  0  0  0  0  0  0  0
   62.2127  157.0051   -8.4104 S   0  0  0  0  0  0  0  0  0  0  0  0
   59.0144  158.3767   -7.4454 H   0  0  0  0  0  0  0  0  0  0  0  0
   61.4798  159.2399   -7.7481 H   0  0  0  0  0  0  0  0  0  0  0  0
   61.1848  154.8111   -8.7077 H   0  0  0  0  0  0  0  0  0  0  0  0
   53.9453  160.6167   -3.5737 H   0  0  0  0  0  0  0  0  0  0  0  0
   55.6704  160.1349   -3.5911 H   0  0  0  0  0  0  0  0  0  0  0  0
   54.8420  160.4436   -2.0423 H   0  0  0  0  0  0  0  0  0  0  0  0
   58.6839  154.5334   -8.2622 H   0  0  0  0  0  0  0  0  0  0  0  0
   57.7552  155.9455   -8.7256 H   0  0  0  0  0  0  0  0  0  0  0  0
   55.6250  155.8232   -1.7756 H   0  0  0  0  0  0  0  0  0  0  0  0
   53.9291  156.3705   -1.7116 H   0  0  0  0  0  0  0  0  0  0  0  0
   58.5298  155.1710   -5.8577 H   0  0  0  0  0  0  0  0  0  0  0  0
   57.5898  156.6152   -6.2760 H   0  0  0  0  0  0  0  0  0  0  0  0
   56.2604  157.9869   -2.8688 H   0  0  0  0  0  0  0  0  0  0  0  0
   55.4741  158.3147   -1.3029 H   0  0  0  0  0  0  0  0  0  0  0  0
   52.2807  155.2619   -5.7484 H   0  0  0  0  0  0  0  0  0  0  0  0
   57.8218  155.5311   -4.4768 H   0  0  0  0  0  0  0  0  0  0  0  0
   57.1587  156.1128   -2.9653 H   0  0  0  0  0  0  0  0  0  0  0  0
   56.4801  154.0119   -7.0734 H   0  0  0  0  0  0  0  0  0  0  0  0
  1  2  2  0  0  0  0
  1  4  1  0  0  0  0
  2 21  1  0  0  0  0
  3  4  2  0  0  0  0
  3 21  1  0  0  0  0
  4 10  1  0  0  0  0
  5  6  2  0  0  0  0
  5  7  1  0  0  0  0
  5 17  1  0  0  0  0
  6 15  1  0  0  0  0
  6 16  1  0  0  0  0
  7 14  1  0  0  0  0
  7 18  2  0  0  0  0
  8 14  1  0  0  0  0
  8 15  1  0  0  0  0
  8 19  2  0  0  0  0
  9 20  1  0  0  0  0
 10 12  1  0  0  0  0
 11 13  1  0  0  0  0
 11 15  1  0  0  0  0
 12 17  1  0  0  0  0
 13 20  1  0  0  0  0
  1 22  1  0  0  0  0
  2 23  1  0  0  0  0
  3 24  1  0  0  0  0
  9 25  1  0  0  0  0
  9 26  1  0  0  0  0
  9 27  1  0  0  0  0
 10 28  1  0  0  0  0
 10 29  1  0  0  0  0
 11 30  1  0  0  0  0
 11 31  1  0  0  0  0
 12 32  1  0  0  0  0
 12 33  1  0  0  0  0
 13 34  1  0  0  0  0
 13 35  1  0  0  0  0
 14 36  1  0  0  0  0
 16 37  1  0  0  0  0
 16 38  1  0  0  0  0
 17 39  1  0  0  0  0
M  END
> <FRED Chemgauss4 score>
-6.765322

$$$$
C82473325	P128885474
  -OEChem-05122015073D

 22 22  0     0  0  0  0  0  0999 V2000
   55.4995  155.1667   -4.6850 C   0  0  0  0  0  0  0  0  0  0  0  0
   55.7624  154.6980   -6.8172 C   0  0  0  0  0  0  0  0  0  0  0  0
   55.7359  155.7558   -5.9415 C   0  0  0  0  0  0  0  0  0  0  0  0
   54.3186  158.4812   -4.3840 C   0  0  0  0  0  0  0  0  0  0  0  0
   55.4895  152.2225   -6.5393 C   0  0  0  0  0  0  0  0  0  0  0  0
   55.7742  158.1626   -4.6305 C   0  0  0  0  0  0  0  0  0  0  0  0
   55.3839  153.8377   -4.7521 N   0  0  0  0  0  0  0  0  0  0  0  0
   55.5482  153.5830   -6.0614 N   0  0  0  0  0  0  0  0  0  0  0  0
   52.2984  159.1248   -5.4666 N   0  0  0  0  0  0  0  0  0  0  0  0
   53.6427  158.8216   -5.5414 N   0  0  0  0  0  0  0  0  0  0  0  0
   53.8238  158.4202   -3.2592 O   0  0  0  0  0  0  0  0  0  0  0  0
   55.9487  157.4748   -6.2939 S   0  0  0  0  0  0  0  0  0  0  0  0
   55.4052  155.6449   -3.7195 H   0  0  0  0  0  0  0  0  0  0  0  0
   55.9113  154.6420   -7.8871 H   0  0  0  0  0  0  0  0  0  0  0  0
   56.5005  151.8082   -6.5027 H   0  0  0  0  0  0  0  0  0  0  0  0
   54.8153  151.6420   -5.9035 H   0  0  0  0  0  0  0  0  0  0  0  0
   55.1093  152.2157   -7.5646 H   0  0  0  0  0  0  0  0  0  0  0  0
   56.1051  157.4304   -3.8879 H   0  0  0  0  0  0  0  0  0  0  0  0
   56.4049  159.0513   -4.5360 H   0  0  0  0  0  0  0  0  0  0  0  0
   52.1163  159.8368   -6.1729 H   0  0  0  0  0  0  0  0  0  0  0  0
   52.1470  159.5771   -4.5658 H   0  0  0  0  0  0  0  0  0  0  0  0
   54.1280  158.8481   -6.4325 H   0  0  0  0  0  0  0  0  0  0  0  0
  1  3  1  0  0  0  0
  1  7  2  0  0  0  0
  2  3  2  0  0  0  0
  2  8  1  0  0  0  0
  3 12  1  0  0  0  0
  4  6  1  0  0  0  0
  4 10  1  0  0  0  0
  4 11  2  0  0  0  0
  5  8  1  0  0  0  0
  6 12  1  0  0  0  0
  7  8  1  0  0  0  0
  9 10  1  0  0  0  0
  1 13  1  0  0  0  0
  2 14  1  0  0  0  0
  5 15  1  0  0  0  0
  5 16  1  0  0  0  0
  5 17  1  0  0  0  0
  6 18  1  0  0  0  0
  6 19  1  0  0  0  0
  9 20  1  0  0  0  0
  9 21  1  0  0  0  0
 10 22  1  0  0  0  0
M  END
> <FRED Chemgauss4 score>
-6.760263

$$$$
C94465098	P148064370
  -OEChem-05122015073D

 44 45  0     1  0  0  0  0  0999 V2000
   53.7017  156.2427   -3.7707 C   0  0  0  0  0  0  0  0  0  0  0  0
   58.4400  161.0457   -1.5217 C   0  0  0  0  0  0  0  0  0  0  0  0
   58.6198  159.5653   -1.7942 C   0  0  0  0  0  0  0  0  0  0  0  0
   57.6755  161.5102   -2.7487 C   0  0  0  0  0  0  0  0  0  0  0  0
   56.5666  160.2452   -4.5061 C   0  0  0  0  0  0  0  0  0  0  0  0
   55.7640  158.9801   -4.8537 C   0  0  0  0  0  0  0  0  0  0  0  0
   57.3649  157.9504   -3.3314 C   0  0  0  0  0  0  0  0  0  0  0  0
   57.2844  159.1787   -2.4192 C   0  0  2  0  0  0  0  0  0  0  0  0
   55.5399  152.9089   -6.7551 C   0  0  0  0  0  0  0  0  0  0  0  0
   53.9405  156.7618   -6.2556 C   0  0  0  0  0  0  0  0  0  0  0  0
   56.0163  156.5695   -4.7944 C   0  0  0  0  0  0  0  0  0  0  0  0
   55.4420  154.3712   -6.4815 C   0  0  0  0  0  0  0  0  0  0  0  0
   54.5688  156.0753   -5.0340 C   0  0  1  0  0  0  0  0  0  0  0  0
   56.7685  160.3988   -3.0675 N   0  0  1  0  0  0  0  0  0  0  0  0
   56.0859  157.8077   -4.0271 N   0  0  2  0  0  0  0  0  0  0  0  0
   52.4293  155.7206   -3.8664 N   0  0  0  0  0  0  0  0  0  0  0  0
   54.6474  154.6299   -5.2945 N   0  0  0  0  0  0  0  0  0  0  0  0
   54.0983  156.8155   -2.7560 O   0  0  0  0  0  0  0  0  0  0  0  0
   57.8662  161.1989   -0.6148 H   0  0  0  0  0  0  0  0  0  0  0  0
   59.3924  161.5553   -1.4385 H   0  0  0  0  0  0  0  0  0  0  0  0
   59.4694  159.3638   -2.4378 H   0  0  0  0  0  0  0  0  0  0  0  0
   58.7581  159.0381   -0.8521 H   0  0  0  0  0  0  0  0  0  0  0  0
   57.1164  162.4338   -2.5483 H   0  0  0  0  0  0  0  0  0  0  0  0
   58.3810  161.7211   -3.5647 H   0  0  0  0  0  0  0  0  0  0  0  0
   57.5192  160.2371   -5.0288 H   0  0  0  0  0  0  0  0  0  0  0  0
   56.0159  161.1139   -4.8634 H   0  0  0  0  0  0  0  0  0  0  0  0
   54.6854  159.2231   -4.7405 H   0  0  0  0  0  0  0  0  0  0  0  0
   55.8930  158.7418   -5.9334 H   0  0  0  0  0  0  0  0  0  0  0  0
   58.1870  158.0382   -4.0426 H   0  0  0  0  0  0  0  0  0  0  0  0
   57.5501  157.0724   -2.7123 H   0  0  0  0  0  0  0  0  0  0  0  0
   56.5658  158.9087   -1.5762 H   0  0  0  0  0  0  0  0  0  0  0  0
   56.0155  152.3858   -5.9184 H   0  0  0  0  0  0  0  0  0  0  0  0
   54.5486  152.4781   -6.9336 H   0  0  0  0  0  0  0  0  0  0  0  0
   56.1495  152.7387   -7.6505 H   0  0  0  0  0  0  0  0  0  0  0  0
   54.5653  156.6362   -7.1471 H   0  0  0  0  0  0  0  0  0  0  0  0
   52.9557  156.3494   -6.5041 H   0  0  0  0  0  0  0  0  0  0  0  0
   53.8036  157.8356   -6.0823 H   0  0  0  0  0  0  0  0  0  0  0  0
   56.5942  155.8038   -4.2613 H   0  0  0  0  0  0  0  0  0  0  0  0
   56.5237  156.7385   -5.7527 H   0  0  0  0  0  0  0  0  0  0  0  0
   54.9662  154.8873   -7.3207 H   0  0  0  0  0  0  0  0  0  0  0  0
   56.4340  154.8028   -6.3190 H   0  0  0  0  0  0  0  0  0  0  0  0
   52.1349  155.2700   -4.7259 H   0  0  0  0  0  0  0  0  0  0  0  0
   51.7845  155.7828   -3.0854 H   0  0  0  0  0  0  0  0  0  0  0  0
   55.0731  154.1808   -4.4899 H   0  0  0  0  0  0  0  0  0  0  0  0
  1 13  1  0  0  0  0
  1 16  1  0  0  0  0
  1 18  2  0  0  0  0
  2  3  1  0  0  0  0
  2  4  1  0  0  0  0
  3  8  1  0  0  0  0
  4 14  1  0  0  0  0
  5  6  1  0  0  0  0
  5 14  1  0  0  0  0
  6 15  1  0  0  0  0
  7  8  1  0  0  0  0
  7 15  1  0  0  0  0
  8 14  1  0  0  0  0
  9 12  1  0  0  0  0
 10 13  1  0  0  0  0
 11 13  1  0  0  0  0
 11 15  1  0  0  0  0
 12 17  1  0  0  0  0
 13 17  1  0  0  0  0
  2 19  1  0  0  0  0
  2 20  1  0  0  0  0
  3 21  1  0  0  0  0
  3 22  1  0  0  0  0
  4 23  1  0  0  0  0
  4 24  1  0  0  0  0
  5 25  1  0  0  0  0
  5 26  1  0  0  0  0
  6 27  1  0  0  0  0
  6 28  1  0  0  0  0
  7 29  1  0  0  0  0
  7 30  1  0  0  0  0
  8 31  1  0  0  0  0
  9 32  1  0  0  0  0
  9 33  1  0  0  0  0
  9 34  1  0  0  0  0
 10 35  1  0  0  0  0
 10 36  1  0  0  0  0
 10 37  1  0  0  0  0
 11 38  1  0  0  0  0
 11 39  1  0  0  0  0
 12 40  1  0  0  0  0
 12 41  1  0  0  0  0
 16 42  1  0  0  0  0
 16 43  1  0  0  0  0
 17 44  1  0  0  0  0
M  END
> <FRED Chemgauss4 score>
-6.754982

$$$$
C77237642	P120494560
  -OEChem-05122015073D

 35 36  0     1  0  0  0  0  0999 V2000
   55.2530  151.8943   -7.4658 C   0  0  0  0  0  0  0  0  0  0  0  0
   55.0062  153.9749   -6.2046 C   0  0  0  0  0  0  0  0  0  0  0  0
   57.0637  153.5363   -7.3924 C   0  0  0  0  0  0  0  0  0  0  0  0
   55.7784  153.1452   -7.0176 C   0  0  0  0  0  0  0  0  0  0  0  0
   56.8047  155.5868   -6.1413 C   0  0  0  0  0  0  0  0  0  0  0  0
   55.5193  155.1958   -5.7665 C   0  0  0  0  0  0  0  0  0  0  0  0
   57.5769  154.7572   -6.9543 C   0  0  0  0  0  0  0  0  0  0  0  0
   57.9162  159.8195   -2.4595 C   0  0  0  0  0  0  0  0  0  0  0  0
   56.7205  160.7285   -2.1961 C   0  0  0  0  0  0  0  0  0  0  0  0
   57.8913  159.2540   -3.8773 C   0  0  0  0  0  0  0  0  0  0  0  0
   55.4055  160.0161   -2.4872 C   0  0  0  0  0  0  0  0  0  0  0  0
   56.5723  158.5294   -4.1796 C   0  0  1  0  0  0  0  0  0  0  0  0
   55.3677  159.4464   -3.9062 C   0  0  1  0  0  0  0  0  0  0  0  0
   56.5668  158.0157   -5.6220 C   0  0  0  0  0  0  0  0  0  0  0  0
   54.8262  150.8784   -7.8298 N   0  0  0  0  0  0  0  0  0  0  0  0
   57.3184  156.8104   -5.7030 N   0  0  0  0  0  0  0  0  0  0  0  0
   54.1620  158.7048   -4.0731 O   0  0  0  0  0  0  0  0  0  0  0  0
   54.7679  155.9860   -4.9866 F   0  0  0  0  0  0  0  0  0  0  0  0
   58.8134  155.1233   -7.3209 F   0  0  0  0  0  0  0  0  0  0  0  0
   54.0026  153.6839   -5.9040 H   0  0  0  0  0  0  0  0  0  0  0  0
   57.6780  152.9007   -8.0256 H   0  0  0  0  0  0  0  0  0  0  0  0
   58.8455  160.3787   -2.3025 H   0  0  0  0  0  0  0  0  0  0  0  0
   57.9142  158.9938   -1.7374 H   0  0  0  0  0  0  0  0  0  0  0  0
   56.7354  161.0650   -1.1533 H   0  0  0  0  0  0  0  0  0  0  0  0
   56.7972  161.6256   -2.8226 H   0  0  0  0  0  0  0  0  0  0  0  0
   58.0388  160.0724   -4.5938 H   0  0  0  0  0  0  0  0  0  0  0  0
   58.7348  158.5648   -4.0039 H   0  0  0  0  0  0  0  0  0  0  0  0
   55.2515  159.2076   -1.7604 H   0  0  0  0  0  0  0  0  0  0  0  0
   54.5651  160.7061   -2.3430 H   0  0  0  0  0  0  0  0  0  0  0  0
   56.4933  157.6498   -3.5274 H   0  0  0  0  0  0  0  0  0  0  0  0
   55.3552  160.2726   -4.6290 H   0  0  0  0  0  0  0  0  0  0  0  0
   57.0178  158.7663   -6.2552 H   0  0  0  0  0  0  0  0  0  0  0  0
   55.5458  157.8254   -5.9193 H   0  0  0  0  0  0  0  0  0  0  0  0
   58.3045  156.8185   -5.4274 H   0  0  0  0  0  0  0  0  0  0  0  0
   53.4326  159.3267   -3.9255 H   0  0  0  0  0  0  0  0  0  0  0  0
  1  4  1  0  0  0  0
  1 15  3  0  0  0  0
  2  4  1  0  0  0  0
  2  6  2  0  0  0  0
  3  4  2  0  0  0  0
  3  7  1  0  0  0  0
  5  6  1  0  0  0  0
  5  7  2  0  0  0  0
  5 16  1  0  0  0  0
  6 18  1  0  0  0  0
  7 19  1  0  0  0  0
  8  9  1  0  0  0  0
  8 10  1  0  0  0  0
  9 11  1  0  0  0  0
 10 12  1  0  0  0  0
 11 13  1  0  0  0  0
 12 13  1  0  0  0  0
 12 14  1  0  0  0  0
 13 17  1  0  0  0  0
 14 16  1  0  0  0  0
  2 20  1  0  0  0  0
  3 21  1  0  0  0  0
  8 22  1  0  0  0  0
  8 23  1  0  0  0  0
  9 24  1  0  0  0  0
  9 25  1  0  0  0  0
 10 26  1  0  0  0  0
 10 27  1  0  0  0  0
 11 28  1  0  0  0  0
 11 29  1  0  0  0  0
 12 30  1  0  0  0  0
 13 31  1  0  0  0  0
 14 32  1  0  0  0  0
 14 33  1  0  0  0  0
 16 34  1  0  0  0  0
 17 35  1  0  0  0  0
M  END
> <FRED Chemgauss4 score>
-6.748974

$$$$
C72200101	P112162253
  -OEChem-05122015073D

 24 24  0     1  0  0  0  0  0999 V2000
   58.1264  156.4808   -5.5203 C   0  0  0  0  0  0  0  0  0  0  0  0
   56.9027  156.0365   -3.4503 C   0  0  0  0  0  0  0  0  0  0  0  0
   55.7003  155.8525   -2.7677 C   0  0  0  0  0  0  0  0  0  0  0  0
   55.6833  156.3631   -5.5103 C   0  0  0  0  0  0  0  0  0  0  0  0
   56.8942  156.2920   -4.8216 C   0  0  0  0  0  0  0  0  0  0  0  0
   54.4809  156.1790   -4.8277 C   0  0  0  0  0  0  0  0  0  0  0  0
   54.4894  155.9236   -3.4564 C   0  0  0  0  0  0  0  0  0  0  0  0
   53.0452  157.6391   -6.2898 C   0  0  0  0  0  0  0  0  0  0  0  0
   53.1975  156.2679   -5.6275 C   0  0  1  0  0  0  0  0  0  0  0  0
   59.1271  156.6342   -6.0877 N   0  0  0  0  0  0  0  0  0  0  0  0
   53.1293  155.2040   -6.6052 N   0  0  0  0  0  0  0  0  0  0  0  0
   51.6142  157.8848   -6.6047 N   0  3  0  0  0  0  0  0  0  0  0  0
   53.3949  155.7512   -2.8098 O   0  5  0  0  0  0  0  0  0  0  0  0
   57.8388  155.9781   -2.8999 H   0  0  0  0  0  0  0  0  0  0  0  0
   55.7365  155.6546   -1.6975 H   0  0  0  0  0  0  0  0  0  0  0  0
   55.6725  156.5629   -6.5801 H   0  0  0  0  0  0  0  0  0  0  0  0
   53.3643  158.4617   -5.6416 H   0  0  0  0  0  0  0  0  0  0  0  0
   53.5859  157.6979   -7.2400 H   0  0  0  0  0  0  0  0  0  0  0  0
   52.3449  156.1024   -4.9565 H   0  0  0  0  0  0  0  0  0  0  0  0
   52.5225  155.3139   -7.3969 H   0  0  0  0  0  0  0  0  0  0  0  0
   53.5224  154.3100   -6.3741 H   0  0  0  0  0  0  0  0  0  0  0  0
   51.5150  158.3502   -7.5124 H   0  0  0  0  0  0  0  0  0  0  0  0
   51.1819  158.4819   -5.8925 H   0  0  0  0  0  0  0  0  0  0  0  0
   51.0920  157.0036   -6.6404 H   0  0  0  0  0  0  0  0  0  0  0  0
  1  5  1  0  0  0  0
  1 10  3  0  0  0  0
  2  3  1  0  0  0  0
  2  5  2  0  0  0  0
  3  7  2  0  0  0  0
  4  5  1  0  0  0  0
  4  6  2  0  0  0  0
  6  7  1  0  0  0  0
  6  9  1  0  0  0  0
  7 13  1  0  0  0  0
  8  9  1  0  0  0  0
  8 12  1  0  0  0  0
  9 11  1  0  0  0  0
  2 14  1  0  0  0  0
  3 15  1  0  0  0  0
  4 16  1  0  0  0  0
  8 17  1  0  0  0  0
  8 18  1  0  0  0  0
  9 19  1  0  0  0  0
 11 20  1  0  0  0  0
 11 21  1  0  0  0  0
 12 22  1  0  0  0  0
 12 23  1  0  0  0  0
 12 24  1  0  0  0  0
M  CHG  2  12   1  13  -1
M  END
> <FRED Chemgauss4 score>
-6.748023

$$$$
C87750457	P137259032
  -OEChem-05122015073D

 31 32  0     0  0  0  0  0  0999 V2000
   58.8348  156.4398   -7.4952 C   0  0  0  0  0  0  0  0  0  0  0  0
   58.2462  158.3486   -6.1031 C   0  0  0  0  0  0  0  0  0  0  0  0
   57.9579  157.0684   -6.6079 C   0  0  0  0  0  0  0  0  0  0  0  0
   59.9817  157.1192   -7.8511 C   0  0  0  0  0  0  0  0  0  0  0  0
   60.2639  158.3723   -7.3570 C   0  0  0  0  0  0  0  0  0  0  0  0
   59.4149  159.0149   -6.4796 C   0  0  0  0  0  0  0  0  0  0  0  0
   61.8676  157.7781   -8.6826 C   0  0  0  0  0  0  0  0  0  0  0  0
   56.7033  156.3754   -6.1917 C   0  0  0  0  0  0  0  0  0  0  0  0
   54.4496  157.3467   -4.3493 C   0  0  0  0  0  0  0  0  0  0  0  0
   53.0725  157.1028   -6.4430 C   0  0  0  0  0  0  0  0  0  0  0  0
   54.3708  156.7156   -5.7375 C   0  0  0  0  0  0  0  0  0  0  0  0
   55.5234  157.1253   -6.5389 N   0  0  0  0  0  0  0  0  0  0  0  0
   60.9461  156.6686   -8.6989 O   0  0  0  0  0  0  0  0  0  0  0  0
   61.4405  158.8629   -7.8334 O   0  0  0  0  0  0  0  0  0  0  0  0
   53.3332  156.9239   -3.5744 O   0  0  0  0  0  0  0  0  0  0  0  0
   53.0142  158.5180   -6.5813 O   0  0  0  0  0  0  0  0  0  0  0  0
   59.7976  160.7311   -5.8001 Br  0  0  0  0  0  0  0  0  0  0  0  0
   58.6241  155.4527   -7.8923 H   0  0  0  0  0  0  0  0  0  0  0  0
   57.5475  158.8171   -5.4126 H   0  0  0  0  0  0  0  0  0  0  0  0
   62.8425  157.4205   -8.3320 H   0  0  0  0  0  0  0  0  0  0  0  0
   61.9786  158.1568   -9.7051 H   0  0  0  0  0  0  0  0  0  0  0  0
   56.6203  155.3889   -6.6682 H   0  0  0  0  0  0  0  0  0  0  0  0
   56.6779  156.2074   -5.1066 H   0  0  0  0  0  0  0  0  0  0  0  0
   54.4139  158.4390   -4.4166 H   0  0  0  0  0  0  0  0  0  0  0  0
   55.3666  157.0531   -3.8268 H   0  0  0  0  0  0  0  0  0  0  0  0
   52.1938  156.7720   -5.8786 H   0  0  0  0  0  0  0  0  0  0  0  0
   53.0324  156.6682   -7.4471 H   0  0  0  0  0  0  0  0  0  0  0  0
   54.4458  155.6244   -5.6620 H   0  0  0  0  0  0  0  0  0  0  0  0
   55.2971  156.9862   -7.5290 H   0  0  0  0  0  0  0  0  0  0  0  0
   53.4223  157.3456   -2.7050 H   0  0  0  0  0  0  0  0  0  0  0  0
   52.1786  158.7194   -7.0317 H   0  0  0  0  0  0  0  0  0  0  0  0
  1  3  1  0  0  0  0
  1  4  2  0  0  0  0
  2  3  2  0  0  0  0
  2  6  1  0  0  0  0
  3  8  1  0  0  0  0
  4  5  1  0  0  0  0
  4 13  1  0  0  0  0
  5  6  2  0  0  0  0
  5 14  1  0  0  0  0
  6 17  1  0  0  0  0
  7 13  1  0  0  0  0
  7 14  1  0  0  0  0
  8 12  1  0  0  0  0
  9 11  1  0  0  0  0
  9 15  1  0  0  0  0
 10 11  1  0  0  0  0
 10 16  1  0  0  0  0
 11 12  1  0  0  0  0
  1 18  1  0  0  0  0
  2 19  1  0  0  0  0
  7 20  1  0  0  0  0
  7 21  1  0  0  0  0
  8 22  1  0  0  0  0
  8 23  1  0  0  0  0
  9 24  1  0  0  0  0
  9 25  1  0  0  0  0
 10 26  1  0  0  0  0
 10 27  1  0  0  0  0
 11 28  1  0  0  0  0
 12 29  1  0  0  0  0
 15 30  1  0  0  0  0
 16 31  1  0  0  0  0
M  END
> <FRED Chemgauss4 score>
-6.744654

$$$$
C37044345	P55071484
  -OEChem-05122015073D

 35 36  0     1  0  0  0  0  0999 V2000
   53.8726  156.5203   -3.3055 C   0  0  0  0  0  0  0  0  0  0  0  0
   56.7343  160.4980   -4.2404 C   0  0  0  0  0  0  0  0  0  0  0  0
   55.2299  160.2971   -4.3830 C   0  0  0  0  0  0  0  0  0  0  0  0
   57.4379  159.2147   -3.8054 C   0  0  0  0  0  0  0  0  0  0  0  0
   54.6079  159.7141   -3.1150 C   0  0  0  0  0  0  0  0  0  0  0  0
   55.0616  154.9601   -4.8925 C   0  0  0  0  0  0  0  0  0  0  0  0
   53.7096  156.7351   -6.2907 C   0  0  0  0  0  0  0  0  0  0  0  0
   53.7289  155.4229   -4.3176 C   0  0  2  0  0  0  0  0  0  0  0  0
   56.8410  158.6021   -2.5269 C   0  0  2  0  0  0  0  0  0  0  0  0
   55.3114  158.4376   -2.6368 C   0  0  2  0  0  0  0  0  0  0  0  0
   57.2221  159.4231   -1.2895 C   0  0  0  0  0  0  0  0  0  0  0  0
   52.8755  155.9147   -5.4082 N   0  0  0  0  0  0  0  0  0  0  0  0
   54.9832  157.3198   -3.4967 N   0  0  0  0  0  0  0  0  0  0  0  0
   53.0371  156.6355   -2.4165 O   0  0  0  0  0  0  0  0  0  0  0  0
   58.5559  159.5037   -1.1902 F   0  0  0  0  0  0  0  0  0  0  0  0
   56.7143  160.6590   -1.3895 F   0  0  0  0  0  0  0  0  0  0  0  0
   56.7351  158.8369   -0.1873 F   0  0  0  0  0  0  0  0  0  0  0  0
   55.3885  156.0655   -6.2891 S   0  0  0  0  0  0  0  0  0  0  0  0
   57.1519  160.8374   -5.1976 H   0  0  0  0  0  0  0  0  0  0  0  0
   56.9322  161.2916   -3.5091 H   0  0  0  0  0  0  0  0  0  0  0  0
   54.7510  161.2589   -4.6150 H   0  0  0  0  0  0  0  0  0  0  0  0
   55.0255  159.6310   -5.2317 H   0  0  0  0  0  0  0  0  0  0  0  0
   57.3880  158.4832   -4.6269 H   0  0  0  0  0  0  0  0  0  0  0  0
   58.5081  159.4277   -3.6497 H   0  0  0  0  0  0  0  0  0  0  0  0
   54.6296  160.4731   -2.3182 H   0  0  0  0  0  0  0  0  0  0  0  0
   53.5422  159.5042   -3.2996 H   0  0  0  0  0  0  0  0  0  0  0  0
   55.8854  155.0417   -4.1667 H   0  0  0  0  0  0  0  0  0  0  0  0
   55.0148  153.9148   -5.2307 H   0  0  0  0  0  0  0  0  0  0  0  0
   53.3113  156.7077   -7.3138 H   0  0  0  0  0  0  0  0  0  0  0  0
   53.7094  157.7819   -5.9610 H   0  0  0  0  0  0  0  0  0  0  0  0
   53.2079  154.5773   -3.8012 H   0  0  0  0  0  0  0  0  0  0  0  0
   57.2841  157.5928   -2.3931 H   0  0  0  0  0  0  0  0  0  0  0  0
   54.9137  158.1654   -1.6394 H   0  0  0  0  0  0  0  0  0  0  0  0
   52.1554  156.5217   -5.0090 H   0  0  0  0  0  0  0  0  0  0  0  0
   55.5986  157.1136   -4.2777 H   0  0  0  0  0  0  0  0  0  0  0  0
  1  8  1  0  0  0  0
  1 13  1  0  0  0  0
  1 14  2  0  0  0  0
  2  3  1  0  0  0  0
  2  4  1  0  0  0  0
  3  5  1  0  0  0  0
  4  9  1  0  0  0  0
  5 10  1  0  0  0  0
  6  8  1  0  0  0  0
  6 18  1  0  0  0  0
  7 12  1  0  0  0  0
  7 18  1  0  0  0  0
  8 12  1  0  0  0  0
  9 10  1  0  0  0  0
  9 11  1  0  0  0  0
 10 13  1  0  0  0  0
 11 15  1  0  0  0  0
 11 16  1  0  0  0  0
 11 17  1  0  0  0  0
  2 19  1  0  0  0  0
  2 20  1  0  0  0  0
  3 21  1  0  0  0  0
  3 22  1  0  0  0  0
  4 23  1  0  0  0  0
  4 24  1  0  0  0  0
  5 25  1  0  0  0  0
  5 26  1  0  0  0  0
  6 27  1  0  0  0  0
  6 28  1  0  0  0  0
  7 29  1  0  0  0  0
  7 30  1  0  0  0  0
  8 31  1  0  0  0  0
  9 32  1  0  0  0  0
 10 33  1  0  0  0  0
 12 34  1  0  0  0  0
 13 35  1  0  0  0  0
M  END
> <FRED Chemgauss4 score>
-6.741165

$$$$
C86525873	P135471823
  -OEChem-05122015073D

 26 26  0     1  0  0  0  0  0999 V2000
   54.9341  157.6967   -3.0666 C   0  0  0  0  0  0  0  0  0  0  0  0
   54.3033  156.8051   -4.8454 C   0  0  0  0  0  0  0  0  0  0  0  0
   59.4275  153.1051   -7.0191 C   0  0  0  0  0  0  0  0  0  0  0  0
   58.5439  154.3296   -6.8620 C   0  0  0  0  0  0  0  0  0  0  0  0
   57.0859  153.9519   -6.6498 C   0  0  0  0  0  0  0  0  0  0  0  0
   54.9397  154.8522   -6.3241 C   0  0  0  0  0  0  0  0  0  0  0  0
   54.1613  156.1656   -6.2098 C   0  0  1  0  0  0  0  0  0  0  0  0
   55.4020  157.2160   -4.2560 N   0  0  0  0  0  0  0  0  0  0  0  0
   53.6150  157.6090   -2.8830 N   0  0  0  0  0  0  0  0  0  0  0  0
   53.2356  157.0354   -4.0351 N   0  0  0  0  0  0  0  0  0  0  0  0
   52.7665  155.9633   -6.5392 N   0  0  0  0  0  0  0  0  0  0  0  0
   56.3170  155.1402   -6.5253 O   0  0  0  0  0  0  0  0  0  0  0  0
   55.5746  158.1242   -2.3097 H   0  0  0  0  0  0  0  0  0  0  0  0
   59.3527  152.4528   -6.1432 H   0  0  0  0  0  0  0  0  0  0  0  0
   59.1245  152.5285   -7.8986 H   0  0  0  0  0  0  0  0  0  0  0  0
   60.4762  153.3919   -7.1458 H   0  0  0  0  0  0  0  0  0  0  0  0
   58.6330  154.9691   -7.7484 H   0  0  0  0  0  0  0  0  0  0  0  0
   58.8937  154.9354   -6.0176 H   0  0  0  0  0  0  0  0  0  0  0  0
   56.7035  153.3767   -7.4991 H   0  0  0  0  0  0  0  0  0  0  0  0
   56.9644  153.3610   -5.7362 H   0  0  0  0  0  0  0  0  0  0  0  0
   54.8551  154.2657   -5.4026 H   0  0  0  0  0  0  0  0  0  0  0  0
   54.5903  154.2404   -7.1629 H   0  0  0  0  0  0  0  0  0  0  0  0
   54.5336  156.8561   -6.9771 H   0  0  0  0  0  0  0  0  0  0  0  0
   52.2538  156.8377   -4.1897 H   0  0  0  0  0  0  0  0  0  0  0  0
   52.5296  155.2803   -7.2346 H   0  0  0  0  0  0  0  0  0  0  0  0
   52.0942  156.6378   -6.2240 H   0  0  0  0  0  0  0  0  0  0  0  0
  1  8  1  0  0  0  0
  1  9  2  0  0  0  0
  2  7  1  0  0  0  0
  2  8  2  0  0  0  0
  2 10  1  0  0  0  0
  3  4  1  0  0  0  0
  4  5  1  0  0  0  0
  5 12  1  0  0  0  0
  6  7  1  0  0  0  0
  6 12  1  0  0  0  0
  7 11  1  0  0  0  0
  9 10  1  0  0  0  0
  1 13  1  0  0  0  0
  3 14  1  0  0  0  0
  3 15  1  0  0  0  0
  3 16  1  0  0  0  0
  4 17  1  0  0  0  0
  4 18  1  0  0  0  0
  5 19  1  0  0  0  0
  5 20  1  0  0  0  0
  6 21  1  0  0  0  0
  6 22  1  0  0  0  0
  7 23  1  0  0  0  0
 10 24  1  0  0  0  0
 11 25  1  0  0  0  0
 11 26  1  0  0  0  0
M  END
> <FRED Chemgauss4 score>
-6.736940

$$$$
C70680111	P109060696
  -OEChem-05122015073D

 32 32  0     1  0  0  0  0  0999 V2000
   61.9171  163.6183   -5.6052 C   0  0  0  0  0  0  0  0  0  0  0  0
   57.4154  162.0848   -2.7562 C   0  0  0  0  0  0  0  0  0  0  0  0
   56.1959  161.2155   -2.7859 C   0  0  0  0  0  0  0  0  0  0  0  0
   61.5289  162.3122   -6.2534 C   0  0  0  0  0  0  0  0  0  0  0  0
   60.0100  162.2907   -6.1016 C   0  0  0  0  0  0  0  0  0  0  0  0
   59.7520  163.0824   -4.8255 C   0  0  1  0  0  0  0  0  0  0  0  0
   59.7493  162.2061   -3.5801 C   0  0  0  0  0  0  0  0  0  0  0  0
   55.3428  158.0586   -3.2889 C   0  0  0  0  0  0  0  0  0  0  0  0
   55.3670  158.9872   -2.0865 C   0  0  0  0  0  0  0  0  0  0  0  0
   60.8513  164.0156   -4.8046 N   0  0  0  0  0  0  0  0  0  0  0  0
   54.3005  157.0722   -3.1920 N   0  0  0  0  0  0  0  0  0  0  0  0
   58.4903  161.5502   -3.4498 N   0  0  0  0  0  0  0  0  0  0  0  0
   56.4016  159.9888   -2.1971 N   0  0  0  0  0  0  0  0  0  0  0  0
   62.9898  164.1853   -5.7444 O   0  0  0  0  0  0  0  0  0  0  0  0
   57.3445  163.1491   -2.1629 O   0  0  0  0  0  0  0  0  0  0  0  0
   55.1825  161.6696   -3.2924 O   0  0  0  0  0  0  0  0  0  0  0  0
   61.8328  162.2906   -7.3027 H   0  0  0  0  0  0  0  0  0  0  0  0
   62.0012  161.4899   -5.7075 H   0  0  0  0  0  0  0  0  0  0  0  0
   59.5603  162.8156   -6.9545 H   0  0  0  0  0  0  0  0  0  0  0  0
   59.6002  161.2764   -6.0836 H   0  0  0  0  0  0  0  0  0  0  0  0
   58.8146  163.6443   -4.8891 H   0  0  0  0  0  0  0  0  0  0  0  0
   59.9171  162.8304   -2.7108 H   0  0  0  0  0  0  0  0  0  0  0  0
   60.5308  161.4615   -3.6672 H   0  0  0  0  0  0  0  0  0  0  0  0
   56.2909  157.5228   -3.3989 H   0  0  0  0  0  0  0  0  0  0  0  0
   55.1584  158.6318   -4.2028 H   0  0  0  0  0  0  0  0  0  0  0  0
   54.4141  159.5180   -1.9985 H   0  0  0  0  0  0  0  0  0  0  0  0
   55.5429  158.4335   -1.1585 H   0  0  0  0  0  0  0  0  0  0  0  0
   60.8613  164.8604   -4.2417 H   0  0  0  0  0  0  0  0  0  0  0  0
   54.1079  156.6474   -2.2990 H   0  0  0  0  0  0  0  0  0  0  0  0
   53.9213  156.6740   -4.0363 H   0  0  0  0  0  0  0  0  0  0  0  0
   58.3734  160.6338   -3.8929 H   0  0  0  0  0  0  0  0  0  0  0  0
   57.3192  159.7641   -1.8234 H   0  0  0  0  0  0  0  0  0  0  0  0
  1  4  1  0  0  0  0
  1 10  1  0  0  0  0
  1 14  2  0  0  0  0
  2  3  1  0  0  0  0
  2 12  1  0  0  0  0
  2 15  2  0  0  0  0
  3 13  1  0  0  0  0
  3 16  2  0  0  0  0
  4  5  1  0  0  0  0
  5  6  1  0  0  0  0
  6  7  1  0  0  0  0
  6 10  1  0  0  0  0
  7 12  1  0  0  0  0
  8  9  1  0  0  0  0
  8 11  1  0  0  0  0
  9 13  1  0  0  0  0
  4 17  1  0  0  0  0
  4 18  1  0  0  0  0
  5 19  1  0  0  0  0
  5 20  1  0  0  0  0
  6 21  1  0  0  0  0
  7 22  1  0  0  0  0
  7 23  1  0  0  0  0
  8 24  1  0  0  0  0
  8 25  1  0  0  0  0
  9 26  1  0  0  0  0
  9 27  1  0  0  0  0
 10 28  1  0  0  0  0
 11 29  1  0  0  0  0
 11 30  1  0  0  0  0
 12 31  1  0  0  0  0
 13 32  1  0  0  0  0
M  END
> <FRED Chemgauss4 score>
-6.736085

$$$$
C72200928	P112162344
  -OEChem-05122015073D

 27 27  0     1  0  0  0  0  0999 V2000
   56.9610  158.0096   -3.7612 C   0  0  0  0  0  0  0  0  0  0  0  0
   56.2943  156.2417   -5.2669 C   0  0  0  0  0  0  0  0  0  0  0  0
   55.9899  157.5984   -2.8483 C   0  0  0  0  0  0  0  0  0  0  0  0
   55.3232  155.8303   -4.3539 C   0  0  0  0  0  0  0  0  0  0  0  0
   55.1711  156.5087   -3.1446 C   0  0  0  0  0  0  0  0  0  0  0  0
   57.1132  157.3313   -4.9706 C   0  0  0  0  0  0  0  0  0  0  0  0
   55.8747  158.3668   -1.5662 C   0  0  0  0  0  0  0  0  0  0  0  0
   52.9826  155.0130   -4.7811 C   0  0  0  0  0  0  0  0  0  0  0  0
   54.4661  154.6402   -4.7331 C   0  0  2  0  0  0  0  0  0  0  0  0
   54.7065  153.5335   -3.8332 N   0  0  0  0  0  0  0  0  0  0  0  0
   52.7636  156.0562   -5.8159 N   0  3  0  0  0  0  0  0  0  0  0  0
   54.2765  156.1298   -2.3039 O   0  5  0  0  0  0  0  0  0  0  0  0
   54.7231  159.1952   -1.6229 O   0  0  0  0  0  0  0  0  0  0  0  0
   58.3113  157.8392   -6.0973 Cl  0  0  0  0  0  0  0  0  0  0  0  0
   57.5981  158.8601   -3.5275 H   0  0  0  0  0  0  0  0  0  0  0  0
   56.4102  155.7109   -6.2093 H   0  0  0  0  0  0  0  0  0  0  0  0
   55.7850  157.6901   -0.7090 H   0  0  0  0  0  0  0  0  0  0  0  0
   56.7595  158.9935   -1.4075 H   0  0  0  0  0  0  0  0  0  0  0  0
   52.3411  154.1685   -5.0533 H   0  0  0  0  0  0  0  0  0  0  0  0
   52.6359  155.4388   -3.8338 H   0  0  0  0  0  0  0  0  0  0  0  0
   54.7720  154.2794   -5.7234 H   0  0  0  0  0  0  0  0  0  0  0  0
   55.6316  153.4004   -3.4678 H   0  0  0  0  0  0  0  0  0  0  0  0
   54.0105  152.8148   -3.7552 H   0  0  0  0  0  0  0  0  0  0  0  0
   52.0823  156.7512   -5.4949 H   0  0  0  0  0  0  0  0  0  0  0  0
   52.4088  155.6403   -6.6830 H   0  0  0  0  0  0  0  0  0  0  0  0
   53.6382  156.5447   -6.0323 H   0  0  0  0  0  0  0  0  0  0  0  0
   54.6802  159.6759   -0.7800 H   0  0  0  0  0  0  0  0  0  0  0  0
  1  3  2  0  0  0  0
  1  6  1  0  0  0  0
  2  4  1  0  0  0  0
  2  6  2  0  0  0  0
  3  5  1  0  0  0  0
  3  7  1  0  0  0  0
  4  5  2  0  0  0  0
  4  9  1  0  0  0  0
  5 12  1  0  0  0  0
  6 14  1  0  0  0  0
  7 13  1  0  0  0  0
  8  9  1  0  0  0  0
  8 11  1  0  0  0  0
  9 10  1  0  0  0  0
  1 15  1  0  0  0  0
  2 16  1  0  0  0  0
  7 17  1  0  0  0  0
  7 18  1  0  0  0  0
  8 19  1  0  0  0  0
  8 20  1  0  0  0  0
  9 21  1  0  0  0  0
 10 22  1  0  0  0  0
 10 23  1  0  0  0  0
 11 24  1  0  0  0  0
 11 25  1  0  0  0  0
 11 26  1  0  0  0  0
 13 27  1  0  0  0  0
M  CHG  2  11   1  12  -1
M  END
> <FRED Chemgauss4 score>
-6.727478

$$$$
C93756940	P146892601
  -OEChem-05122015073D

 53 54  0     1  0  0  0  0  0999 V2000
   53.2542  156.4313   -4.5910 C   0  0  0  0  0  0  0  0  0  0  0  0
   55.2268  154.1875   -5.5077 C   0  0  0  0  0  0  0  0  0  0  0  0
   59.2155  158.1220   -6.8923 C   0  0  0  0  0  0  0  0  0  0  0  0
   56.5264  154.9827   -5.5990 C   0  0  0  0  0  0  0  0  0  0  0  0
   59.6780  158.9978   -5.7226 C   0  0  0  0  0  0  0  0  0  0  0  0
   54.1062  154.8380   -6.3207 C   0  0  0  0  0  0  0  0  0  0  0  0
   55.2091  157.1064   -6.0004 C   0  0  0  0  0  0  0  0  0  0  0  0
   57.7918  157.5784   -6.7209 C   0  0  0  0  0  0  0  0  0  0  0  0
   57.6368  158.3165   -4.3981 C   0  0  0  0  0  0  0  0  0  0  0  0
   56.3200  156.4393   -5.1742 C   0  0  2  0  0  0  0  0  0  0  0  0
   58.4816  159.4986   -4.9152 C   0  0  1  0  0  0  0  0  0  0  0  0
   53.8923  156.3136   -5.9523 C   0  0  2  0  0  0  0  0  0  0  0  0
   51.7002  158.9188   -7.4749 C   0  0  0  0  0  0  0  0  0  0  0  0
   59.2067  161.6936   -4.2627 C   0  0  0  0  0  0  0  0  0  0  0  0
   60.0749  159.7570   -3.1363 C   0  0  0  0  0  0  0  0  0  0  0  0
   52.6768  158.2990   -6.5343 C   0  0  0  0  0  0  0  0  0  0  0  0
   57.5666  157.1807   -5.3336 N   0  0  1  0  0  0  0  0  0  0  0  0
   52.0264  155.8195   -4.4992 N   0  0  0  0  0  0  0  0  0  0  0  0
   52.9310  156.9106   -6.8818 N   0  0  0  0  0  0  0  0  0  0  0  0
   58.9081  160.3396   -3.7980 N   0  0  0  0  0  0  0  0  0  0  0  0
   53.8066  157.0106   -3.6590 O   0  0  0  0  0  0  0  0  0  0  0  0
   55.3957  153.1672   -5.8707 H   0  0  0  0  0  0  0  0  0  0  0  0
   54.9223  154.1019   -4.4575 H   0  0  0  0  0  0  0  0  0  0  0  0
   59.2750  158.7066   -7.8287 H   0  0  0  0  0  0  0  0  0  0  0  0
   59.9185  157.2801   -7.0181 H   0  0  0  0  0  0  0  0  0  0  0  0
   57.2843  154.5067   -4.9644 H   0  0  0  0  0  0  0  0  0  0  0  0
   56.9023  154.9382   -6.6298 H   0  0  0  0  0  0  0  0  0  0  0  0
   60.3536  158.4083   -5.0850 H   0  0  0  0  0  0  0  0  0  0  0  0
   60.2654  159.8420   -6.1091 H   0  0  0  0  0  0  0  0  0  0  0  0
   54.3613  154.7555   -7.3860 H   0  0  0  0  0  0  0  0  0  0  0  0
   53.1842  154.2602   -6.1748 H   0  0  0  0  0  0  0  0  0  0  0  0
   55.0520  158.1320   -5.6381 H   0  0  0  0  0  0  0  0  0  0  0  0
   55.5434  157.1937   -7.0447 H   0  0  0  0  0  0  0  0  0  0  0  0
   57.0923  158.3698   -7.0039 H   0  0  0  0  0  0  0  0  0  0  0  0
   57.6382  156.7376   -7.4045 H   0  0  0  0  0  0  0  0  0  0  0  0
   58.0269  157.9766   -3.4142 H   0  0  0  0  0  0  0  0  0  0  0  0
   56.6093  158.6842   -4.1987 H   0  0  0  0  0  0  0  0  0  0  0  0
   56.0449  156.4644   -4.1129 H   0  0  0  0  0  0  0  0  0  0  0  0
   57.8435  160.1153   -5.5718 H   0  0  0  0  0  0  0  0  0  0  0  0
   52.0806  158.8995   -8.5019 H   0  0  0  0  0  0  0  0  0  0  0  0
   50.7372  158.3981   -7.4367 H   0  0  0  0  0  0  0  0  0  0  0  0
   51.5303  159.9659   -7.1971 H   0  0  0  0  0  0  0  0  0  0  0  0
   59.5249  162.3173   -3.4232 H   0  0  0  0  0  0  0  0  0  0  0  0
   58.3190  162.1416   -4.7174 H   0  0  0  0  0  0  0  0  0  0  0  0
   60.0075  161.6698   -5.0068 H   0  0  0  0  0  0  0  0  0  0  0  0
   60.3889  160.3900   -2.3023 H   0  0  0  0  0  0  0  0  0  0  0  0
   60.9048  159.6682   -3.8426 H   0  0  0  0  0  0  0  0  0  0  0  0
   59.8339  158.7623   -2.7518 H   0  0  0  0  0  0  0  0  0  0  0  0
   52.2907  158.3216   -5.5107 H   0  0  0  0  0  0  0  0  0  0  0  0
   53.6328  158.8300   -6.5621 H   0  0  0  0  0  0  0  0  0  0  0  0
   51.6527  155.3522   -5.3188 H   0  0  0  0  0  0  0  0  0  0  0  0
   51.4788  155.8164   -3.6448 H   0  0  0  0  0  0  0  0  0  0  0  0
   53.3111  156.8589   -7.8236 H   0  0  0  0  0  0  0  0  0  0  0  0
  1 12  1  0  0  0  0
  1 18  1  0  0  0  0
  1 21  2  0  0  0  0
  2  4  1  0  0  0  0
  2  6  1  0  0  0  0
  3  5  1  0  0  0  0
  3  8  1  0  0  0  0
  4 10  1  0  0  0  0
  5 11  1  0  0  0  0
  6 12  1  0  0  0  0
  7 10  1  0  0  0  0
  7 12  1  0  0  0  0
  8 17  1  0  0  0  0
  9 11  1  0  0  0  0
  9 17  1  0  0  0  0
 10 17  1  0  0  0  0
 11 20  1  0  0  0  0
 12 19  1  0  0  0  0
 13 16  1  0  0  0  0
 14 20  1  0  0  0  0
 15 20  1  0  0  0  0
 16 19  1  0  0  0  0
  2 22  1  0  0  0  0
  2 23  1  0  0  0  0
  3 24  1  0  0  0  0
  3 25  1  0  0  0  0
  4 26  1  0  0  0  0
  4 27  1  0  0  0  0
  5 28  1  0  0  0  0
  5 29  1  0  0  0  0
  6 30  1  0  0  0  0
  6 31  1  0  0  0  0
  7 32  1  0  0  0  0
  7 33  1  0  0  0  0
  8 34  1  0  0  0  0
  8 35  1  0  0  0  0
  9 36  1  0  0  0  0
  9 37  1  0  0  0  0
 10 38  1  0  0  0  0
 11 39  1  0  0  0  0
 13 40  1  0  0  0  0
 13 41  1  0  0  0  0
 13 42  1  0  0  0  0
 14 43  1  0  0  0  0
 14 44  1  0  0  0  0
 14 45  1  0  0  0  0
 15 46  1  0  0  0  0
 15 47  1  0  0  0  0
 15 48  1  0  0  0  0
 16 49  1  0  0  0  0
 16 50  1  0  0  0  0
 18 51  1  0  0  0  0
 18 52  1  0  0  0  0
 19 53  1  0  0  0  0
M  END
> <FRED Chemgauss4 score>
-6.720266

$$$$
C87427527	P136769775
  -OEChem-05122015073D

 36 37  0     0  0  0  0  0  0999 V2000
   55.7531  154.4339   -5.1364 C   0  0  0  0  0  0  0  0  0  0  0  0
   56.4992  155.5983   -5.3181 C   0  0  0  0  0  0  0  0  0  0  0  0
   54.3597  154.4944   -5.1164 C   0  0  0  0  0  0  0  0  0  0  0  0
   54.4585  156.8838   -5.4596 C   0  0  0  0  0  0  0  0  0  0  0  0
   55.8519  156.8232   -5.4797 C   0  0  0  0  0  0  0  0  0  0  0  0
   53.7124  155.7193   -5.2780 C   0  0  0  0  0  0  0  0  0  0  0  0
   56.8357  158.8968   -2.9682 C   0  0  0  0  0  0  0  0  0  0  0  0
   56.2979  160.1611   -2.8327 C   0  0  0  0  0  0  0  0  0  0  0  0
   58.0364  158.4073   -3.6640 C   0  0  0  0  0  0  0  0  0  0  0  0
   59.7233  158.6854   -6.5087 C   0  0  0  0  0  0  0  0  0  0  0  0
   56.8453  161.4100   -3.3997 C   0  0  0  0  0  0  0  0  0  0  0  0
   56.6500  158.0680   -5.6732 C   0  0  0  0  0  0  0  0  0  0  0  0
   59.0546  157.5227   -5.8124 C   0  0  0  0  0  0  0  0  0  0  0  0
   55.1291  160.2363   -2.0916 N   0  0  0  0  0  0  0  0  0  0  0  0
   54.7556  159.0452   -1.6519 N   0  0  0  0  0  0  0  0  0  0  0  0
   52.3034  155.7804   -5.2581 N   0  0  0  0  0  0  0  0  0  0  0  0
   60.8027  158.2899   -7.2692 N   0  0  0  0  0  0  0  0  0  0  0  0
   57.9270  158.0092   -5.0082 N   0  0  0  0  0  0  0  0  0  0  0  0
   59.0779  158.3946   -3.0090 O   0  0  0  0  0  0  0  0  0  0  0  0
   59.3244  159.8450   -6.4431 O   0  0  0  0  0  0  0  0  0  0  0  0
   55.8001  157.8224   -2.1211 S   0  0  0  0  0  0  0  0  0  0  0  0
   56.2573  153.4799   -5.0107 H   0  0  0  0  0  0  0  0  0  0  0  0
   57.5847  155.5418   -5.3324 H   0  0  0  0  0  0  0  0  0  0  0  0
   53.7880  153.5808   -4.9744 H   0  0  0  0  0  0  0  0  0  0  0  0
   53.9553  157.8398   -5.5860 H   0  0  0  0  0  0  0  0  0  0  0  0
   56.4376  161.6009   -4.4056 H   0  0  0  0  0  0  0  0  0  0  0  0
   56.6122  162.2860   -2.7711 H   0  0  0  0  0  0  0  0  0  0  0  0
   57.9449  161.3783   -3.4834 H   0  0  0  0  0  0  0  0  0  0  0  0
   56.8416  158.2541   -6.7393 H   0  0  0  0  0  0  0  0  0  0  0  0
   56.1206  158.9503   -5.2877 H   0  0  0  0  0  0  0  0  0  0  0  0
   59.7535  157.0141   -5.1429 H   0  0  0  0  0  0  0  0  0  0  0  0
   58.6736  156.8198   -6.5582 H   0  0  0  0  0  0  0  0  0  0  0  0
   51.7795  154.9328   -5.1748 H   0  0  0  0  0  0  0  0  0  0  0  0
   51.8510  156.6569   -5.4221 H   0  0  0  0  0  0  0  0  0  0  0  0
   61.0742  157.3137   -7.3211 H   0  0  0  0  0  0  0  0  0  0  0  0
   61.3624  158.9477   -7.8025 H   0  0  0  0  0  0  0  0  0  0  0  0
  1  2  2  0  0  0  0
  1  3  1  0  0  0  0
  2  5  1  0  0  0  0
  3  6  2  0  0  0  0
  4  5  2  0  0  0  0
  4  6  1  0  0  0  0
  5 12  1  0  0  0  0
  6 16  1  0  0  0  0
  7  8  2  0  0  0  0
  7  9  1  0  0  0  0
  7 21  1  0  0  0  0
  8 11  1  0  0  0  0
  8 14  1  0  0  0  0
  9 18  1  0  0  0  0
  9 19  2  0  0  0  0
 10 13  1  0  0  0  0
 10 17  1  0  0  0  0
 10 20  2  0  0  0  0
 12 18  1  0  0  0  0
 13 18  1  0  0  0  0
 14 15  2  0  0  0  0
 15 21  1  0  0  0  0
  1 22  1  0  0  0  0
  2 23  1  0  0  0  0
  3 24  1  0  0  0  0
  4 25  1  0  0  0  0
 11 26  1  0  0  0  0
 11 27  1  0  0  0  0
 11 28  1  0  0  0  0
 12 29  1  0  0  0  0
 12 30  1  0  0  0  0
 13 31  1  0  0  0  0
 13 32  1  0  0  0  0
 16 33  1  0  0  0  0
 16 34  1  0  0  0  0
 17 35  1  0  0  0  0
 17 36  1  0  0  0  0
M  END
> <FRED Chemgauss4 score>
-6.718988

$$$$
C05725726	P08547959
  -OEChem-05122015073D

 30 30  0     1  0  0  0  0  0999 V2000
   56.3590  156.7319   -5.4832 C   0  0  0  0  0  0  0  0  0  0  0  0
   55.0651  157.8142   -3.8052 C   0  0  0  0  0  0  0  0  0  0  0  0
   55.5922  155.4706   -5.9248 C   0  0  2  0  0  0  0  0  0  0  0  0
   54.1896  157.0649   -2.8089 C   0  0  2  0  0  0  0  0  0  0  0  0
   54.0669  155.5127   -5.6791 C   0  0  2  0  0  0  0  0  0  0  0  0
   54.1423  155.5473   -3.0309 C   0  0  2  0  0  0  0  0  0  0  0  0
   53.4985  155.0329   -4.3278 C   0  0  1  0  0  0  0  0  0  0  0  0
   56.2587  154.1886   -5.4138 C   0  0  0  0  0  0  0  0  0  0  0  0
   56.2319  157.0572   -4.1061 O   0  0  0  0  0  0  0  0  0  0  0  0
   52.8881  157.6429   -2.8378 O   0  0  0  0  0  0  0  0  0  0  0  0
   53.4905  154.6537   -6.6872 O   0  0  0  0  0  0  0  0  0  0  0  0
   53.4271  154.9842   -1.9193 O   0  0  0  0  0  0  0  0  0  0  0  0
   52.1072  155.3930   -4.2940 O   0  0  0  0  0  0  0  0  0  0  0  0
   55.4893  153.0882   -5.8525 O   0  0  0  0  0  0  0  0  0  0  0  0
   57.4338  156.6021   -5.6786 H   0  0  0  0  0  0  0  0  0  0  0  0
   56.0443  157.6024   -6.0806 H   0  0  0  0  0  0  0  0  0  0  0  0
   54.4997  158.1204   -4.6990 H   0  0  0  0  0  0  0  0  0  0  0  0
   55.4010  158.7579   -3.3488 H   0  0  0  0  0  0  0  0  0  0  0  0
   55.7116  155.4117   -7.0590 H   0  0  0  0  0  0  0  0  0  0  0  0
   54.6122  157.2424   -1.8052 H   0  0  0  0  0  0  0  0  0  0  0  0
   53.7068  156.5077   -5.9023 H   0  0  0  0  0  0  0  0  0  0  0  0
   55.1478  155.1626   -2.9225 H   0  0  0  0  0  0  0  0  0  0  0  0
   53.4829  153.9153   -4.3067 H   0  0  0  0  0  0  0  0  0  0  0  0
   56.2897  154.2058   -4.3281 H   0  0  0  0  0  0  0  0  0  0  0  0
   57.2644  154.1184   -5.8182 H   0  0  0  0  0  0  0  0  0  0  0  0
   52.9966  158.5726   -2.5880 H   0  0  0  0  0  0  0  0  0  0  0  0
   53.7458  155.0341   -7.5387 H   0  0  0  0  0  0  0  0  0  0  0  0
   53.9259  155.2205   -1.1221 H   0  0  0  0  0  0  0  0  0  0  0  0
   51.7038  154.9378   -5.0432 H   0  0  0  0  0  0  0  0  0  0  0  0
   55.9231  152.2821   -5.5215 H   0  0  0  0  0  0  0  0  0  0  0  0
  1  3  1  0  0  0  0
  1  9  1  0  0  0  0
  2  4  1  0  0  0  0
  2  9  1  0  0  0  0
  3  5  1  0  0  0  0
  3  8  1  0  0  0  0
  4  6  1  0  0  0  0
  4 10  1  0  0  0  0
  5  7  1  0  0  0  0
  5 11  1  0  0  0  0
  6  7  1  0  0  0  0
  6 12  1  0  0  0  0
  7 13  1  0  0  0  0
  8 14  1  0  0  0  0
  1 15  1  0  0  0  0
  1 16  1  0  0  0  0
  2 17  1  0  0  0  0
  2 18  1  0  0  0  0
  3 19  1  0  0  0  0
  4 20  1  0  0  0  0
  5 21  1  0  0  0  0
  6 22  1  0  0  0  0
  7 23  1  0  0  0  0
  8 24  1  0  0  0  0
  8 25  1  0  0  0  0
 10 26  1  0  0  0  0
 11 27  1  0  0  0  0
 12 28  1  0  0  0  0
 13 29  1  0  0  0  0
 14 30  1  0  0  0  0
M  END
> <FRED Chemgauss4 score>
-6.718088

$$$$
C82897318	P129593492
  -OEChem-05122015073D

 27 27  0     1  0  0  0  0  0999 V2000
   56.5794  156.1427   -5.7728 C   0  0  0  0  0  0  0  0  0  0  0  0
   57.4233  154.5717   -6.9349 C   0  0  0  0  0  0  0  0  0  0  0  0
   56.0612  154.4243   -7.0515 C   0  0  0  0  0  0  0  0  0  0  0  0
   58.4876  153.7535   -7.5374 C   0  0  0  0  0  0  0  0  0  0  0  0
   55.2373  153.4461   -7.7838 C   0  0  0  0  0  0  0  0  0  0  0  0
   54.0705  155.7405   -6.0864 C   0  0  0  0  0  0  0  0  0  0  0  0
   53.8866  156.2773   -3.5719 C   0  0  0  0  0  0  0  0  0  0  0  0
   53.5496  155.2996   -4.7053 C   0  0  1  0  0  0  0  0  0  0  0  0
   57.7393  155.6430   -6.1374 N   0  0  0  0  0  0  0  0  0  0  0  0
   55.5341  155.4375   -6.3013 N   0  0  0  0  0  0  0  0  0  0  0  0
   52.0917  155.1523   -4.7839 N   0  0  0  0  0  0  0  0  0  0  0  0
   53.3786  155.8126   -2.3284 O   0  0  0  0  0  0  0  0  0  0  0  0
   56.4353  157.0039   -5.1347 H   0  0  0  0  0  0  0  0  0  0  0  0
   58.7825  154.1433   -8.5272 H   0  0  0  0  0  0  0  0  0  0  0  0
   59.3966  153.7214   -6.9097 H   0  0  0  0  0  0  0  0  0  0  0  0
   58.1793  152.7010   -7.6742 H   0  0  0  0  0  0  0  0  0  0  0  0
   55.0098  152.5669   -7.1577 H   0  0  0  0  0  0  0  0  0  0  0  0
   54.2761  153.8770   -8.1152 H   0  0  0  0  0  0  0  0  0  0  0  0
   55.7377  153.0830   -8.6990 H   0  0  0  0  0  0  0  0  0  0  0  0
   53.9368  156.8248   -6.2071 H   0  0  0  0  0  0  0  0  0  0  0  0
   53.4746  155.2849   -6.8884 H   0  0  0  0  0  0  0  0  0  0  0  0
   54.9712  156.3929   -3.4756 H   0  0  0  0  0  0  0  0  0  0  0  0
   53.4649  157.2691   -3.7714 H   0  0  0  0  0  0  0  0  0  0  0  0
   53.9685  154.3191   -4.4474 H   0  0  0  0  0  0  0  0  0  0  0  0
   51.5761  155.2016   -3.9360 H   0  0  0  0  0  0  0  0  0  0  0  0
   51.7072  154.8110   -5.6342 H   0  0  0  0  0  0  0  0  0  0  0  0
   53.6252  156.4729   -1.6608 H   0  0  0  0  0  0  0  0  0  0  0  0
  1  9  2  0  0  0  0
  1 10  1  0  0  0  0
  2  3  2  0  0  0  0
  2  4  1  0  0  0  0
  2  9  1  0  0  0  0
  3  5  1  0  0  0  0
  3 10  1  0  0  0  0
  6  8  1  0  0  0  0
  6 10  1  0  0  0  0
  7  8  1  0  0  0  0
  7 12  1  0  0  0  0
  8 11  1  0  0  0  0
  1 13  1  0  0  0  0
  4 14  1  0  0  0  0
  4 15  1  0  0  0  0
  4 16  1  0  0  0  0
  5 17  1  0  0  0  0
  5 18  1  0  0  0  0
  5 19  1  0  0  0  0
  6 20  1  0  0  0  0
  6 21  1  0  0  0  0
  7 22  1  0  0  0  0
  7 23  1  0  0  0  0
  8 24  1  0  0  0  0
 11 25  1  0  0  0  0
 11 26  1  0  0  0  0
 12 27  1  0  0  0  0
M  END
> <FRED Chemgauss4 score>
-6.717134

$$$$
C88853175	P138986328
  -OEChem-05122015073D

 35 36  0     1  0  0  0  0  0999 V2000
   57.1266  156.8491   -5.1855 C   0  0  0  0  0  0  0  0  0  0  0  0
   55.9169  156.7794   -4.4947 C   0  0  0  0  0  0  0  0  0  0  0  0
   55.4191  154.6782   -5.5784 C   0  0  0  0  0  0  0  0  0  0  0  0
   57.4826  155.8334   -6.0728 C   0  0  0  0  0  0  0  0  0  0  0  0
   56.6289  154.7480   -6.2692 C   0  0  0  0  0  0  0  0  0  0  0  0
   55.0632  155.6940   -4.6911 C   0  0  0  0  0  0  0  0  0  0  0  0
   60.1196  156.0974   -8.6628 C   0  0  0  0  0  0  0  0  0  0  0  0
   61.1493  156.9510   -8.6669 C   0  0  0  0  0  0  0  0  0  0  0  0
   58.9564  158.0787   -7.8638 C   0  0  0  0  0  0  0  0  0  0  0  0
   58.8387  156.5648   -8.0340 C   0  0  2  0  0  0  0  0  0  0  0  0
   52.3891  157.8754   -4.8695 C   0  0  0  0  0  0  0  0  0  0  0  0
   56.9700  153.7084   -7.1632 N   0  0  0  0  0  0  0  0  0  0  0  0
   58.6876  155.9223   -6.7485 N   0  0  0  0  0  0  0  0  0  0  0  0
   52.4730  156.4079   -4.8837 N   0  0  0  0  0  0  0  0  0  0  0  0
   60.9496  159.5501   -8.7856 O   0  0  0  0  0  0  0  0  0  0  0  0
   61.2070  158.4328   -6.5278 O   0  0  0  0  0  0  0  0  0  0  0  0
   53.1478  154.2092   -3.7230 O   0  0  0  0  0  0  0  0  0  0  0  0
   53.6850  156.4001   -2.6113 O   0  0  0  0  0  0  0  0  0  0  0  0
   60.7161  158.4346   -7.8913 S   0  0  0  0  0  0  0  0  0  0  0  0
   53.5494  155.6064   -3.8254 S   0  0  0  0  0  0  0  0  0  0  0  0
   57.7838  157.7000   -5.0246 H   0  0  0  0  0  0  0  0  0  0  0  0
   55.6491  157.5766   -3.8064 H   0  0  0  0  0  0  0  0  0  0  0  0
   54.7528  153.8321   -5.7310 H   0  0  0  0  0  0  0  0  0  0  0  0
   60.2012  155.1055   -9.0912 H   0  0  0  0  0  0  0  0  0  0  0  0
   62.1285  156.7562   -9.0793 H   0  0  0  0  0  0  0  0  0  0  0  0
   58.5183  158.5945   -8.7254 H   0  0  0  0  0  0  0  0  0  0  0  0
   58.5208  158.4714   -6.9416 H   0  0  0  0  0  0  0  0  0  0  0  0
   57.9771  156.3208   -8.6612 H   0  0  0  0  0  0  0  0  0  0  0  0
   53.3315  158.3021   -4.5162 H   0  0  0  0  0  0  0  0  0  0  0  0
   51.5842  158.2015   -4.2052 H   0  0  0  0  0  0  0  0  0  0  0  0
   52.1874  158.2522   -5.8758 H   0  0  0  0  0  0  0  0  0  0  0  0
   56.3609  152.9214   -7.2476 H   0  0  0  0  0  0  0  0  0  0  0  0
   57.8567  153.7346   -7.6221 H   0  0  0  0  0  0  0  0  0  0  0  0
   59.5106  155.5147   -6.3217 H   0  0  0  0  0  0  0  0  0  0  0  0
   51.6319  155.9116   -5.2025 H   0  0  0  0  0  0  0  0  0  0  0  0
  1  2  2  0  0  0  0
  1  4  1  0  0  0  0
  2  6  1  0  0  0  0
  3  5  1  0  0  0  0
  3  6  2  0  0  0  0
  4  5  2  0  0  0  0
  4 13  1  0  0  0  0
  5 12  1  0  0  0  0
  6 20  1  0  0  0  0
  7  8  2  0  0  0  0
  7 10  1  0  0  0  0
  8 19  1  0  0  0  0
  9 10  1  0  0  0  0
  9 19  1  0  0  0  0
 10 13  1  0  0  0  0
 11 14  1  0  0  0  0
 14 20  1  0  0  0  0
 15 19  2  0  0  0  0
 16 19  2  0  0  0  0
 17 20  2  0  0  0  0
 18 20  2  0  0  0  0
  1 21  1  0  0  0  0
  2 22  1  0  0  0  0
  3 23  1  0  0  0  0
  7 24  1  0  0  0  0
  8 25  1  0  0  0  0
  9 26  1  0  0  0  0
  9 27  1  0  0  0  0
 10 28  1  0  0  0  0
 11 29  1  0  0  0  0
 11 30  1  0  0  0  0
 11 31  1  0  0  0  0
 12 32  1  0  0  0  0
 12 33  1  0  0  0  0
 13 34  1  0  0  0  0
 14 35  1  0  0  0  0
M  END
> <FRED Chemgauss4 score>
-6.714460

$$$$
C86453848	P135358716
  -OEChem-05122015073D

 24 25  0     0  0  0  0  0  0999 V2000
   54.7863  156.1182   -3.2988 C   0  0  0  0  0  0  0  0  0  0  0  0
   56.4638  156.4773   -5.1349 C   0  0  0  0  0  0  0  0  0  0  0  0
   55.1877  158.1657   -4.2600 C   0  0  0  0  0  0  0  0  0  0  0  0
   55.1542  153.8870   -6.1122 C   0  0  0  0  0  0  0  0  0  0  0  0
   54.2771  155.0891   -5.7227 C   0  0  0  0  0  0  0  0  0  0  0  0
   55.7648  153.9395   -4.7001 C   0  0  0  0  0  0  0  0  0  0  0  0
   55.3556  155.4600   -4.6400 C   0  0  0  0  0  0  0  0  0  0  0  0
   54.6815  159.5804   -4.2765 C   0  0  0  0  0  0  0  0  0  0  0  0
   54.7346  157.4114   -3.2050 N   0  0  0  0  0  0  0  0  0  0  0  0
   56.0138  157.7766   -5.1795 N   0  0  0  0  0  0  0  0  0  0  0  0
   53.4241  159.7288   -5.0381 N   0  3  0  0  0  0  0  0  0  0  0  0
   54.4586  155.2489   -2.4734 O   0  5  0  0  0  0  0  0  0  0  0  0
   57.5988  156.1607   -5.4899 O   0  0  0  0  0  0  0  0  0  0  0  0
   54.6160  152.9694   -6.3628 H   0  0  0  0  0  0  0  0  0  0  0  0
   55.8715  154.1055   -6.9115 H   0  0  0  0  0  0  0  0  0  0  0  0
   54.1199  155.8219   -6.5193 H   0  0  0  0  0  0  0  0  0  0  0  0
   53.3007  154.8098   -5.3096 H   0  0  0  0  0  0  0  0  0  0  0  0
   55.2550  153.2718   -3.9966 H   0  0  0  0  0  0  0  0  0  0  0  0
   56.8364  153.7245   -4.6538 H   0  0  0  0  0  0  0  0  0  0  0  0
   55.4188  160.2277   -4.7456 H   0  0  0  0  0  0  0  0  0  0  0  0
   54.4864  159.9112   -3.2592 H   0  0  0  0  0  0  0  0  0  0  0  0
   52.6630  159.1862   -4.6108 H   0  0  0  0  0  0  0  0  0  0  0  0
   53.5343  159.4010   -6.0061 H   0  0  0  0  0  0  0  0  0  0  0  0
   53.1238  160.7111   -5.0744 H   0  0  0  0  0  0  0  0  0  0  0  0
  1  7  1  0  0  0  0
  1  9  2  0  0  0  0
  1 12  1  0  0  0  0
  2  7  1  0  0  0  0
  2 10  1  0  0  0  0
  2 13  2  0  0  0  0
  3  8  1  0  0  0  0
  3  9  1  0  0  0  0
  3 10  2  0  0  0  0
  4  5  1  0  0  0  0
  4  6  1  0  0  0  0
  5  7  1  0  0  0  0
  6  7  1  0  0  0  0
  8 11  1  0  0  0  0
  4 14  1  0  0  0  0
  4 15  1  0  0  0  0
  5 16  1  0  0  0  0
  5 17  1  0  0  0  0
  6 18  1  0  0  0  0
  6 19  1  0  0  0  0
  8 20  1  0  0  0  0
  8 21  1  0  0  0  0
 11 22  1  0  0  0  0
 11 23  1  0  0  0  0
 11 24  1  0  0  0  0
M  CHG  2  11   1  12  -1
M  END
> <FRED Chemgauss4 score>
-6.713988

$$$$
C53110661	P79635694
  -OEChem-05122015073D

 39 41  0     1  0  0  0  0  0999 V2000
   57.5433  156.8950   -7.0143 C   0  0  0  0  0  0  0  0  0  0  0  0
   55.3921  155.2296   -4.5630 C   0  0  0  0  0  0  0  0  0  0  0  0
   57.9683  157.9915   -6.2850 C   0  0  0  0  0  0  0  0  0  0  0  0
   55.1468  154.2635   -5.5099 C   0  0  0  0  0  0  0  0  0  0  0  0
   56.2775  156.2577   -5.0301 C   0  0  0  0  0  0  0  0  0  0  0  0
   56.6765  156.0203   -6.3484 C   0  0  0  0  0  0  0  0  0  0  0  0
   56.7710  157.4029   -4.3853 C   0  0  0  0  0  0  0  0  0  0  0  0
   56.7468  158.9943   -0.3540 C   0  0  0  0  0  0  0  0  0  0  0  0
   57.5487  160.2279   -0.7561 C   0  0  0  0  0  0  0  0  0  0  0  0
   55.4598  158.8665   -1.1690 C   0  0  0  0  0  0  0  0  0  0  0  0
   56.5578  160.1180   -3.0807 C   0  0  0  0  0  0  0  0  0  0  0  0
   57.8524  160.2404   -2.2586 C   0  0  1  0  0  0  0  0  0  0  0  0
   55.7088  158.8926   -2.6883 C   0  0  2  0  0  0  0  0  0  0  0  0
   58.6134  161.5092   -2.6418 C   0  0  0  0  0  0  0  0  0  0  0  0
   54.3707  158.9209   -3.4375 C   0  0  0  0  0  0  0  0  0  0  0  0
   57.6087  158.2575   -5.0141 N   0  0  0  0  0  0  0  0  0  0  0  0
   56.4045  157.6773   -3.0838 N   0  0  0  0  0  0  0  0  0  0  0  0
   53.6509  157.7538   -3.0977 O   0  0  0  0  0  0  0  0  0  0  0  0
   55.9719  154.5747   -6.9687 S   0  0  0  0  0  0  0  0  0  0  0  0
   57.8634  156.7279   -8.0358 H   0  0  0  0  0  0  0  0  0  0  0  0
   54.9539  155.2001   -3.5729 H   0  0  0  0  0  0  0  0  0  0  0  0
   58.6420  158.7174   -6.7299 H   0  0  0  0  0  0  0  0  0  0  0  0
   54.5200  153.3886   -5.4103 H   0  0  0  0  0  0  0  0  0  0  0  0
   57.3643  158.0970   -0.4750 H   0  0  0  0  0  0  0  0  0  0  0  0
   56.4955  159.0561    0.7113 H   0  0  0  0  0  0  0  0  0  0  0  0
   56.9863  161.1294   -0.4809 H   0  0  0  0  0  0  0  0  0  0  0  0
   58.4843  160.2518   -0.1846 H   0  0  0  0  0  0  0  0  0  0  0  0
   54.9483  157.9390   -0.8817 H   0  0  0  0  0  0  0  0  0  0  0  0
   54.7915  159.6929   -0.8927 H   0  0  0  0  0  0  0  0  0  0  0  0
   55.9614  161.0303   -2.9411 H   0  0  0  0  0  0  0  0  0  0  0  0
   56.8120  160.0719   -4.1482 H   0  0  0  0  0  0  0  0  0  0  0  0
   58.4986  159.3840   -2.4894 H   0  0  0  0  0  0  0  0  0  0  0  0
   58.0024  162.3839   -2.4268 H   0  0  0  0  0  0  0  0  0  0  0  0
   58.8490  161.4902   -3.7042 H   0  0  0  0  0  0  0  0  0  0  0  0
   59.5383  161.5701   -2.0713 H   0  0  0  0  0  0  0  0  0  0  0  0
   54.5558  158.9392   -4.5081 H   0  0  0  0  0  0  0  0  0  0  0  0
   53.8068  159.8001   -3.1384 H   0  0  0  0  0  0  0  0  0  0  0  0
   56.6255  157.0099   -2.3604 H   0  0  0  0  0  0  0  0  0  0  0  0
   52.8057  157.7853   -3.5795 H   0  0  0  0  0  0  0  0  0  0  0  0
  1  3  2  0  0  0  0
  1  6  1  0  0  0  0
  2  4  2  0  0  0  0
  2  5  1  0  0  0  0
  3 16  1  0  0  0  0
  4 19  1  0  0  0  0
  5  6  2  0  0  0  0
  5  7  1  0  0  0  0
  6 19  1  0  0  0  0
  7 16  2  0  0  0  0
  7 17  1  0  0  0  0
  8  9  1  0  0  0  0
  8 10  1  0  0  0  0
  9 12  1  0  0  0  0
 10 13  1  0  0  0  0
 11 12  1  0  0  0  0
 11 13  1  0  0  0  0
 12 14  1  0  0  0  0
 13 15  1  0  0  0  0
 13 17  1  0  0  0  0
 15 18  1  0  0  0  0
  1 20  1  0  0  0  0
  2 21  1  0  0  0  0
  3 22  1  0  0  0  0
  4 23  1  0  0  0  0
  8 24  1  0  0  0  0
  8 25  1  0  0  0  0
  9 26  1  0  0  0  0
  9 27  1  0  0  0  0
 10 28  1  0  0  0  0
 10 29  1  0  0  0  0
 11 30  1  0  0  0  0
 11 31  1  0  0  0  0
 12 32  1  0  0  0  0
 14 33  1  0  0  0  0
 14 34  1  0  0  0  0
 14 35  1  0  0  0  0
 15 36  1  0  0  0  0
 15 37  1  0  0  0  0
 17 38  1  0  0  0  0
 18 39  1  0  0  0  0
M  END
> <FRED Chemgauss4 score>
-6.704346

$$$$
C97694173	P154943471
  -OEChem-05122015073D

 30 31  0     1  0  0  0  0  0999 V2000
   54.3604  156.7790   -3.4500 C   0  0  0  0  0  0  0  0  0  0  0  0
   56.2448  157.8036   -3.9340 C   0  0  0  0  0  0  0  0  0  0  0  0
   55.3795  156.8534   -4.4185 C   0  0  0  0  0  0  0  0  0  0  0  0
   56.8798  154.4447   -7.0749 C   0  0  0  0  0  0  0  0  0  0  0  0
   58.2584  153.8056   -7.0809 C   0  0  0  0  0  0  0  0  0  0  0  0
   58.0251  156.0910   -5.6877 C   0  0  0  0  0  0  0  0  0  0  0  0
   56.7701  155.2261   -5.7663 C   0  0  1  0  0  0  0  0  0  0  0  0
   56.2681  159.2217   -1.8683 C   0  0  0  0  0  0  0  0  0  0  0  0
   55.4988  156.0622   -5.7052 C   0  0  1  0  0  0  0  0  0  0  0  0
   54.5587  157.6153   -2.4276 N   0  0  0  0  0  0  0  0  0  0  0  0
   55.7124  158.2240   -2.7508 N   0  0  0  0  0  0  0  0  0  0  0  0
   53.2744  156.0360   -6.4243 N   0  0  0  0  0  0  0  0  0  0  0  0
   54.3380  155.2251   -5.9160 N   0  0  0  0  0  0  0  0  0  0  0  0
   59.3569  155.0532   -6.3555 S   0  0  0  0  0  0  0  0  0  0  0  0
   53.4811  156.1505   -3.4441 H   0  0  0  0  0  0  0  0  0  0  0  0
   57.1718  158.2055   -4.3202 H   0  0  0  0  0  0  0  0  0  0  0  0
   56.7693  155.1136   -7.9387 H   0  0  0  0  0  0  0  0  0  0  0  0
   56.0980  153.6816   -7.1553 H   0  0  0  0  0  0  0  0  0  0  0  0
   58.2795  152.9093   -6.4533 H   0  0  0  0  0  0  0  0  0  0  0  0
   58.5801  153.5361   -8.0904 H   0  0  0  0  0  0  0  0  0  0  0  0
   57.9414  156.9899   -6.3074 H   0  0  0  0  0  0  0  0  0  0  0  0
   58.2476  156.3941   -4.6607 H   0  0  0  0  0  0  0  0  0  0  0  0
   56.7602  154.5204   -4.9241 H   0  0  0  0  0  0  0  0  0  0  0  0
   55.8667  160.1947   -2.1640 H   0  0  0  0  0  0  0  0  0  0  0  0
   55.9896  158.9909   -0.8364 H   0  0  0  0  0  0  0  0  0  0  0  0
   57.3582  159.2142   -1.9552 H   0  0  0  0  0  0  0  0  0  0  0  0
   55.5109  156.7603   -6.5530 H   0  0  0  0  0  0  0  0  0  0  0  0
   53.6097  156.9901   -6.5546 H   0  0  0  0  0  0  0  0  0  0  0  0
   53.0142  155.7034   -7.3520 H   0  0  0  0  0  0  0  0  0  0  0  0
   54.0398  154.8097   -5.0303 H   0  0  0  0  0  0  0  0  0  0  0  0
  1  3  1  0  0  0  0
  1 10  2  0  0  0  0
  2  3  2  0  0  0  0
  2 11  1  0  0  0  0
  3  9  1  0  0  0  0
  4  5  1  0  0  0  0
  4  7  1  0  0  0  0
  5 14  1  0  0  0  0
  6  7  1  0  0  0  0
  6 14  1  0  0  0  0
  7  9  1  0  0  0  0
  8 11  1  0  0  0  0
  9 13  1  0  0  0  0
 10 11  1  0  0  0  0
 12 13  1  0  0  0  0
  1 15  1  0  0  0  0
  2 16  1  0  0  0  0
  4 17  1  0  0  0  0
  4 18  1  0  0  0  0
  5 19  1  0  0  0  0
  5 20  1  0  0  0  0
  6 21  1  0  0  0  0
  6 22  1  0  0  0  0
  7 23  1  0  0  0  0
  8 24  1  0  0  0  0
  8 25  1  0  0  0  0
  8 26  1  0  0  0  0
  9 27  1  0  0  0  0
 12 28  1  0  0  0  0
 12 29  1  0  0  0  0
 13 30  1  0  0  0  0
M  END
> <FRED Chemgauss4 score>
-6.701373

$$$$
C88628307	P138624546
  -OEChem-05122015073D

 27 27  0     0  0  0  0  0  0999 V2000
   55.6758  158.8042   -2.8911 C   0  0  0  0  0  0  0  0  0  0  0  0
   58.0253  160.8734   -5.8850 C   0  0  0  0  0  0  0  0  0  0  0  0
   55.0075  156.7793   -5.9139 C   0  0  0  0  0  0  0  0  0  0  0  0
   55.7752  154.0997   -6.0270 C   0  0  0  0  0  0  0  0  0  0  0  0
   54.0390  155.7756   -5.9106 C   0  0  0  0  0  0  0  0  0  0  0  0
   54.4228  154.4358   -5.9671 C   0  0  0  0  0  0  0  0  0  0  0  0
   56.3600  156.4432   -5.9739 C   0  0  0  0  0  0  0  0  0  0  0  0
   56.7439  155.1034   -6.0304 C   0  0  0  0  0  0  0  0  0  0  0  0
   56.9379  159.0123   -3.5986 C   0  0  0  0  0  0  0  0  0  0  0  0
   56.6786  160.3588   -5.6431 C   0  0  0  0  0  0  0  0  0  0  0  0
   54.6757  158.6388   -2.3264 N   0  0  0  0  0  0  0  0  0  0  0  0
   59.0928  161.2847   -6.0786 N   0  0  0  0  0  0  0  0  0  0  0  0
   52.6721  156.1179   -5.8481 N   0  0  0  0  0  0  0  0  0  0  0  0
   56.7303  158.9902   -5.0688 N   0  0  0  0  0  0  0  0  0  0  0  0
   58.7022  157.3089   -5.2436 O   0  0  0  0  0  0  0  0  0  0  0  0
   57.6868  158.2054   -7.3529 O   0  0  0  0  0  0  0  0  0  0  0  0
   53.5002  153.4632   -5.9641 F   0  0  0  0  0  0  0  0  0  0  0  0
   57.5369  157.7666   -5.9777 S   0  0  0  0  0  0  0  0  0  0  0  0
   58.5652  154.5749   -6.1092 Br  0  0  0  0  0  0  0  0  0  0  0  0
   54.7060  157.8236   -5.8714 H   0  0  0  0  0  0  0  0  0  0  0  0
   56.0526  153.0496   -6.0715 H   0  0  0  0  0  0  0  0  0  0  0  0
   57.3792  159.9794   -3.3413 H   0  0  0  0  0  0  0  0  0  0  0  0
   57.6602  158.2279   -3.3549 H   0  0  0  0  0  0  0  0  0  0  0  0
   56.1349  160.9934   -4.9374 H   0  0  0  0  0  0  0  0  0  0  0  0
   56.1042  160.3059   -6.5724 H   0  0  0  0  0  0  0  0  0  0  0  0
   52.4137  157.0798   -5.7591 H   0  0  0  0  0  0  0  0  0  0  0  0
   51.9888  155.3895   -5.7987 H   0  0  0  0  0  0  0  0  0  0  0  0
  1  9  1  0  0  0  0
  1 11  3  0  0  0  0
  2 10  1  0  0  0  0
  2 12  3  0  0  0  0
  3  5  1  0  0  0  0
  3  7  2  0  0  0  0
  4  6  1  0  0  0  0
  4  8  2  0  0  0  0
  5  6  2  0  0  0  0
  5 13  1  0  0  0  0
  6 17  1  0  0  0  0
  7  8  1  0  0  0  0
  7 18  1  0  0  0  0
  8 19  1  0  0  0  0
  9 14  1  0  0  0  0
 10 14  1  0  0  0  0
 14 18  1  0  0  0  0
 15 18  2  0  0  0  0
 16 18  2  0  0  0  0
  3 20  1  0  0  0  0
  4 21  1  0  0  0  0
  9 22  1  0  0  0  0
  9 23  1  0  0  0  0
 10 24  1  0  0  0  0
 10 25  1  0  0  0  0
 13 26  1  0  0  0  0
 13 27  1  0  0  0  0
M  END
> <FRED Chemgauss4 score>
-6.698287

$$$$
C93848609	P147064787
  -OEChem-05122015073D

 36 37  0     1  0  0  0  0  0999 V2000
   59.9469  162.3925   -4.8115 C   0  0  0  0  0  0  0  0  0  0  0  0
   59.5347  161.7591   -3.7057 C   0  0  0  0  0  0  0  0  0  0  0  0
   60.1381  161.5964   -6.0468 C   0  0  0  0  0  0  0  0  0  0  0  0
   59.4353  159.7317   -4.6846 C   0  0  0  0  0  0  0  0  0  0  0  0
   54.6169  156.7467   -3.0497 C   0  0  0  0  0  0  0  0  0  0  0  0
   56.5207  158.7597   -5.2818 C   0  0  0  0  0  0  0  0  0  0  0  0
   55.1074  158.2926   -4.9368 C   0  0  0  0  0  0  0  0  0  0  0  0
   56.7794  156.6139   -4.2708 C   0  0  0  0  0  0  0  0  0  0  0  0
   57.3867  158.0171   -4.2734 C   0  0  1  0  0  0  0  0  0  0  0  0
   55.2694  156.8574   -4.4172 C   0  0  1  0  0  0  0  0  0  0  0  0
   54.6742  154.9872   -7.6790 C   0  0  0  0  0  0  0  0  0  0  0  0
   55.2962  156.0269   -6.7727 C   0  0  0  0  0  0  0  0  0  0  0  0
   59.2648  160.4169   -3.5996 N   0  0  0  0  0  0  0  0  0  0  0  0
   59.8543  160.2534   -5.8888 N   0  0  0  0  0  0  0  0  0  0  0  0
   54.7140  155.9003   -5.4103 N   0  3  0  0  0  0  0  0  0  0  0  0
   54.6827  155.6068   -2.5117 O   0  5  0  0  0  0  0  0  0  0  0  0
   60.5135  162.1197   -7.0901 O   0  0  0  0  0  0  0  0  0  0  0  0
   54.0907  157.8139   -2.6260 O   0  0  0  0  0  0  0  0  0  0  0  0
   59.1394  158.0187   -4.7307 S   0  0  0  0  0  0  0  0  0  0  0  0
   60.1455  163.4562   -4.8332 H   0  0  0  0  0  0  0  0  0  0  0  0
   59.3916  162.3284   -2.7928 H   0  0  0  0  0  0  0  0  0  0  0  0
   56.7586  158.4678   -6.3127 H   0  0  0  0  0  0  0  0  0  0  0  0
   56.6180  159.8472   -5.2028 H   0  0  0  0  0  0  0  0  0  0  0  0
   54.6877  158.9538   -4.1680 H   0  0  0  0  0  0  0  0  0  0  0  0
   54.4520  158.3684   -5.8118 H   0  0  0  0  0  0  0  0  0  0  0  0
   57.1621  156.0232   -5.1139 H   0  0  0  0  0  0  0  0  0  0  0  0
   57.0387  156.0751   -3.3517 H   0  0  0  0  0  0  0  0  0  0  0  0
   57.2848  158.4727   -3.2813 H   0  0  0  0  0  0  0  0  0  0  0  0
   54.8991  153.9815   -7.3107 H   0  0  0  0  0  0  0  0  0  0  0  0
   53.5855  155.0974   -7.7190 H   0  0  0  0  0  0  0  0  0  0  0  0
   55.0624  155.0685   -8.6997 H   0  0  0  0  0  0  0  0  0  0  0  0
   55.0863  157.0427   -7.1186 H   0  0  0  0  0  0  0  0  0  0  0  0
   56.3760  155.8842   -6.6751 H   0  0  0  0  0  0  0  0  0  0  0  0
   59.9573  159.6326   -6.6856 H   0  0  0  0  0  0  0  0  0  0  0  0
   54.8584  154.9396   -5.0701 H   0  0  0  0  0  0  0  0  0  0  0  0
   53.6940  156.0268   -5.4665 H   0  0  0  0  0  0  0  0  0  0  0  0
  1  2  2  0  0  0  0
  1  3  1  0  0  0  0
  2 13  1  0  0  0  0
  3 14  1  0  0  0  0
  3 17  2  0  0  0  0
  4 13  2  0  0  0  0
  4 14  1  0  0  0  0
  4 19  1  0  0  0  0
  5 10  1  0  0  0  0
  5 16  1  0  0  0  0
  5 18  2  0  0  0  0
  6  7  1  0  0  0  0
  6  9  1  0  0  0  0
  7 10  1  0  0  0  0
  8  9  1  0  0  0  0
  8 10  1  0  0  0  0
  9 19  1  0  0  0  0
 10 15  1  0  0  0  0
 11 12  1  0  0  0  0
 12 15  1  0  0  0  0
  1 20  1  0  0  0  0
  2 21  1  0  0  0  0
  6 22  1  0  0  0  0
  6 23  1  0  0  0  0
  7 24  1  0  0  0  0
  7 25  1  0  0  0  0
  8 26  1  0  0  0  0
  8 27  1  0  0  0  0
  9 28  1  0  0  0  0
 11 29  1  0  0  0  0
 11 30  1  0  0  0  0
 11 31  1  0  0  0  0
 12 32  1  0  0  0  0
 12 33  1  0  0  0  0
 14 34  1  0  0  0  0
 15 35  1  0  0  0  0
 15 36  1  0  0  0  0
M  CHG  2  15   1  16  -1
M  END
> <FRED Chemgauss4 score>
-6.696428

$$$$
C64858422	P99657934
  -OEChem-05122015073D

 30 31  0     1  0  0  0  0  0999 V2000
   54.4469  157.6921   -5.1828 C   0  0  0  0  0  0  0  0  0  0  0  0
   56.9298  155.2795   -6.0710 C   0  0  0  0  0  0  0  0  0  0  0  0
   54.4815  155.3121   -6.5124 C   0  0  0  0  0  0  0  0  0  0  0  0
   55.9004  153.4225   -6.9408 C   0  0  0  0  0  0  0  0  0  0  0  0
   53.2591  157.3571   -6.0391 C   0  0  0  0  0  0  0  0  0  0  0  0
   55.7054  156.1257   -6.3894 C   0  0  1  0  0  0  0  0  0  0  0  0
   54.9350  159.5644   -1.8227 C   0  0  0  0  0  0  0  0  0  0  0  0
   54.2829  158.7678   -4.1443 C   0  0  2  0  0  0  0  0  0  0  0  0
   55.1231  158.5029   -2.8986 C   0  0  2  0  0  0  0  0  0  0  0  0
   55.5995  157.1288   -5.3226 N   0  0  0  0  0  0  0  0  0  0  0  0
   57.0016  154.0153   -6.6212 N   0  0  0  0  0  0  0  0  0  0  0  0
   55.8963  152.1852   -7.4071 N   0  5  0  0  0  0  0  0  0  0  0  0
   54.6174  154.0292   -6.8118 N   0  0  0  0  0  0  0  0  0  0  0  0
   53.3193  155.9339   -6.3536 N   0  3  0  0  0  0  0  0  0  0  0  0
   57.8576  155.7461   -5.4101 O   0  0  0  0  0  0  0  0  0  0  0  0
   52.9089  158.7778   -3.7967 O   0  0  0  0  0  0  0  0  0  0  0  0
   54.7937  157.2231   -2.3600 O   0  0  0  0  0  0  0  0  0  0  0  0
   52.3313  157.5581   -5.4973 H   0  0  0  0  0  0  0  0  0  0  0  0
   53.2827  157.9408   -6.9632 H   0  0  0  0  0  0  0  0  0  0  0  0
   55.9120  156.6297   -7.3422 H   0  0  0  0  0  0  0  0  0  0  0  0
   53.8829  159.6184   -1.5222 H   0  0  0  0  0  0  0  0  0  0  0  0
   55.2433  160.5516   -2.1798 H   0  0  0  0  0  0  0  0  0  0  0  0
   55.5031  159.3213   -0.9184 H   0  0  0  0  0  0  0  0  0  0  0  0
   54.5414  159.7304   -4.5919 H   0  0  0  0  0  0  0  0  0  0  0  0
   56.1794  158.4596   -3.1896 H   0  0  0  0  0  0  0  0  0  0  0  0
   56.1039  152.2106   -8.4093 H   0  0  0  0  0  0  0  0  0  0  0  0
   53.7694  153.4922   -6.9679 H   0  0  0  0  0  0  0  0  0  0  0  0
   52.4733  155.3823   -6.4600 H   0  0  0  0  0  0  0  0  0  0  0  0
   52.7908  159.4704   -3.1250 H   0  0  0  0  0  0  0  0  0  0  0  0
   55.3967  157.0752   -1.6156 H   0  0  0  0  0  0  0  0  0  0  0  0
  1  5  1  0  0  0  0
  1  8  1  0  0  0  0
  1 10  2  0  0  0  0
  2  6  1  0  0  0  0
  2 11  1  0  0  0  0
  2 15  2  0  0  0  0
  3  6  1  0  0  0  0
  3 13  1  0  0  0  0
  3 14  2  0  0  0  0
  4 11  2  0  0  0  0
  4 12  1  0  0  0  0
  4 13  1  0  0  0  0
  5 14  1  0  0  0  0
  6 10  1  0  0  0  0
  7  9  1  0  0  0  0
  8  9  1  0  0  0  0
  8 16  1  0  0  0  0
  9 17  1  0  0  0  0
  5 18  1  0  0  0  0
  5 19  1  0  0  0  0
  6 20  1  0  0  0  0
  7 21  1  0  0  0  0
  7 22  1  0  0  0  0
  7 23  1  0  0  0  0
  8 24  1  0  0  0  0
  9 25  1  0  0  0  0
 12 26  1  0  0  0  0
 13 27  1  0  0  0  0
 14 28  1  0  0  0  0
 16 29  1  0  0  0  0
 17 30  1  0  0  0  0
M  CHG  2  12  -1  14   1
M  END
> <FRED Chemgauss4 score>
-6.696311

$$$$
C97617202	P154726500
  -OEChem-05122015073D

 37 38  0     1  0  0  0  0  0999 V2000
   53.1493  155.3698   -4.1214 C   0  0  0  0  0  0  0  0  0  0  0  0
   54.9415  153.9677   -7.0158 C   0  0  0  0  0  0  0  0  0  0  0  0
   52.8755  155.2963   -2.7651 C   0  0  0  0  0  0  0  0  0  0  0  0
   56.8534  155.2944   -6.5250 C   0  0  0  0  0  0  0  0  0  0  0  0
   57.1546  153.2143   -7.4527 C   0  0  0  0  0  0  0  0  0  0  0  0
   54.6714  156.6291   -2.2394 C   0  0  0  0  0  0  0  0  0  0  0  0
   54.2486  156.1200   -4.5237 C   0  0  0  0  0  0  0  0  0  0  0  0
   55.4752  155.1526   -6.5213 C   0  0  0  0  0  0  0  0  0  0  0  0
   55.7904  152.9749   -7.4922 C   0  0  0  0  0  0  0  0  0  0  0  0
   55.0295  156.7648   -3.5710 C   0  0  0  0  0  0  0  0  0  0  0  0
   55.0350  151.1467  -10.2824 C   0  0  0  0  0  0  0  0  0  0  0  0
   53.0584  151.3305   -8.7296 C   0  0  0  0  0  0  0  0  0  0  0  0
   54.5940  156.2336   -6.0046 C   0  0  1  0  0  0  0  0  0  0  0  0
   54.4210  151.8916   -9.1069 C   0  0  0  0  0  0  0  0  0  0  0  0
   53.6109  155.9089   -1.8103 N   0  0  0  0  0  0  0  0  0  0  0  0
   57.7100  154.3525   -6.9796 N   0  0  0  0  0  0  0  0  0  0  0  0
   52.6625  157.4993   -6.3702 N   0  0  0  0  0  0  0  0  0  0  0  0
   53.3483  156.3276   -6.7917 N   0  0  0  0  0  0  0  0  0  0  0  0
   55.2937  151.7980   -7.9851 O   0  0  0  0  0  0  0  0  0  0  0  0
   56.0954  157.4951   -3.9204 F   0  0  0  0  0  0  0  0  0  0  0  0
   52.5206  154.8549   -4.8399 H   0  0  0  0  0  0  0  0  0  0  0  0
   53.8653  153.8153   -7.0308 H   0  0  0  0  0  0  0  0  0  0  0  0
   52.0302  154.7228   -2.3992 H   0  0  0  0  0  0  0  0  0  0  0  0
   57.3270  156.1972   -6.1517 H   0  0  0  0  0  0  0  0  0  0  0  0
   57.8637  152.4751   -7.8122 H   0  0  0  0  0  0  0  0  0  0  0  0
   55.2479  157.1128   -1.4578 H   0  0  0  0  0  0  0  0  0  0  0  0
   55.1470  150.0807  -10.0622 H   0  0  0  0  0  0  0  0  0  0  0  0
   54.4069  151.2562  -11.1729 H   0  0  0  0  0  0  0  0  0  0  0  0
   56.0181  151.5567  -10.5391 H   0  0  0  0  0  0  0  0  0  0  0  0
   53.1233  150.2688   -8.4725 H   0  0  0  0  0  0  0  0  0  0  0  0
   52.3549  151.4470   -9.5609 H   0  0  0  0  0  0  0  0  0  0  0  0
   52.6314  151.8717   -7.8781 H   0  0  0  0  0  0  0  0  0  0  0  0
   55.0789  157.2148   -6.1672 H   0  0  0  0  0  0  0  0  0  0  0  0
   54.3224  152.9528   -9.3580 H   0  0  0  0  0  0  0  0  0  0  0  0
   51.7611  157.2449   -5.9672 H   0  0  0  0  0  0  0  0  0  0  0  0
   53.1970  157.9218   -5.6122 H   0  0  0  0  0  0  0  0  0  0  0  0
   53.5931  156.4023   -7.7716 H   0  0  0  0  0  0  0  0  0  0  0  0
  1  3  2  0  0  0  0
  1  7  1  0  0  0  0
  2  8  2  0  0  0  0
  2  9  1  0  0  0  0
  3 15  1  0  0  0  0
  4  8  1  0  0  0  0
  4 16  2  0  0  0  0
  5  9  2  0  0  0  0
  5 16  1  0  0  0  0
  6 10  1  0  0  0  0
  6 15  2  0  0  0  0
  7 10  2  0  0  0  0
  7 13  1  0  0  0  0
  8 13  1  0  0  0  0
  9 19  1  0  0  0  0
 10 20  1  0  0  0  0
 11 14  1  0  0  0  0
 12 14  1  0  0  0  0
 13 18  1  0  0  0  0
 14 19  1  0  0  0  0
 17 18  1  0  0  0  0
  1 21  1  0  0  0  0
  2 22  1  0  0  0  0
  3 23  1  0  0  0  0
  4 24  1  0  0  0  0
  5 25  1  0  0  0  0
  6 26  1  0  0  0  0
 11 27  1  0  0  0  0
 11 28  1  0  0  0  0
 11 29  1  0  0  0  0
 12 30  1  0  0  0  0
 12 31  1  0  0  0  0
 12 32  1  0  0  0  0
 13 33  1  0  0  0  0
 14 34  1  0  0  0  0
 17 35  1  0  0  0  0
 17 36  1  0  0  0  0
 18 37  1  0  0  0  0
M  END
> <FRED Chemgauss4 score>
-6.693875

$$$$
C80566884	P125793118
  -OEChem-05122015073D

 38 39  0     0  0  0  0  0  0999 V2000
   59.0844  161.0044   -4.4723 C   0  0  0  0  0  0  0  0  0  0  0  0
   59.2869  159.7242   -3.9570 C   0  0  0  0  0  0  0  0  0  0  0  0
   58.1886  161.8734   -3.8492 C   0  0  0  0  0  0  0  0  0  0  0  0
   58.5936  159.3128   -2.8187 C   0  0  0  0  0  0  0  0  0  0  0  0
   50.0456  160.5924   -6.4999 C   0  0  0  0  0  0  0  0  0  0  0  0
   57.4952  161.4620   -2.7109 C   0  0  0  0  0  0  0  0  0  0  0  0
   57.6977  160.1817   -2.1956 C   0  0  0  0  0  0  0  0  0  0  0  0
   51.8006  159.4790   -6.6933 C   0  0  0  0  0  0  0  0  0  0  0  0
   53.2138  158.9618   -6.8049 C   0  0  0  0  0  0  0  0  0  0  0  0
   53.9369  158.9100   -5.4613 C   0  0  0  0  0  0  0  0  0  0  0  0
   55.9734  158.1811   -1.4624 C   0  0  0  0  0  0  0  0  0  0  0  0
   55.0489  158.6238   -2.5812 C   0  0  0  0  0  0  0  0  0  0  0  0
   51.4047  160.7206   -6.5348 N   0  0  0  0  0  0  0  0  0  0  0  0
   49.5758  159.3496   -6.6269 N   0  0  0  0  0  0  0  0  0  0  0  0
   50.7185  158.6571   -6.7490 N   0  0  0  0  0  0  0  0  0  0  0  0
   56.5960  162.3701   -2.1066 N   0  0  0  0  0  0  0  0  0  0  0  0
   53.2746  158.0136   -4.4967 N   0  0  0  0  0  0  0  0  0  0  0  0
   55.2139  156.3935   -3.9410 O   0  0  0  0  0  0  0  0  0  0  0  0
   53.3232  156.6878   -2.2993 O   0  0  0  0  0  0  0  0  0  0  0  0
   56.8463  159.6067   -0.7584 S   0  0  0  0  0  0  0  0  0  0  0  0
   54.2148  157.2306   -3.3061 S   0  0  0  0  0  0  0  0  0  0  0  0
   59.6254  161.3251   -5.3576 H   0  0  0  0  0  0  0  0  0  0  0  0
   59.9843  159.0474   -4.4423 H   0  0  0  0  0  0  0  0  0  0  0  0
   58.0408  162.8689   -4.2600 H   0  0  0  0  0  0  0  0  0  0  0  0
   58.7665  158.3102   -2.4347 H   0  0  0  0  0  0  0  0  0  0  0  0
   49.3766  161.4311   -6.3781 H   0  0  0  0  0  0  0  0  0  0  0  0
   53.7697  159.6134   -7.4909 H   0  0  0  0  0  0  0  0  0  0  0  0
   53.2095  157.9677   -7.2700 H   0  0  0  0  0  0  0  0  0  0  0  0
   54.9537  158.5291   -5.5994 H   0  0  0  0  0  0  0  0  0  0  0  0
   54.0032  159.9007   -4.9998 H   0  0  0  0  0  0  0  0  0  0  0  0
   56.7145  157.4660   -1.8340 H   0  0  0  0  0  0  0  0  0  0  0  0
   55.4085  157.6861   -0.6659 H   0  0  0  0  0  0  0  0  0  0  0  0
   55.5968  159.1131   -3.3929 H   0  0  0  0  0  0  0  0  0  0  0  0
   54.2667  159.2993   -2.2207 H   0  0  0  0  0  0  0  0  0  0  0  0
   50.6777  157.6511   -6.8643 H   0  0  0  0  0  0  0  0  0  0  0  0
   56.5157  163.2928   -2.4791 H   0  0  0  0  0  0  0  0  0  0  0  0
   56.1303  162.1028   -1.2649 H   0  0  0  0  0  0  0  0  0  0  0  0
   52.3343  158.3226   -4.2177 H   0  0  0  0  0  0  0  0  0  0  0  0
  1  2  1  0  0  0  0
  1  3  2  0  0  0  0
  2  4  2  0  0  0  0
  3  6  1  0  0  0  0
  4  7  1  0  0  0  0
  5 13  1  0  0  0  0
  5 14  2  0  0  0  0
  6  7  2  0  0  0  0
  6 16  1  0  0  0  0
  7 20  1  0  0  0  0
  8  9  1  0  0  0  0
  8 13  2  0  0  0  0
  8 15  1  0  0  0  0
  9 10  1  0  0  0  0
 10 17  1  0  0  0  0
 11 12  1  0  0  0  0
 11 20  1  0  0  0  0
 12 21  1  0  0  0  0
 14 15  1  0  0  0  0
 17 21  1  0  0  0  0
 18 21  2  0  0  0  0
 19 21  2  0  0  0  0
  1 22  1  0  0  0  0
  2 23  1  0  0  0  0
  3 24  1  0  0  0  0
  4 25  1  0  0  0  0
  5 26  1  0  0  0  0
  9 27  1  0  0  0  0
  9 28  1  0  0  0  0
 10 29  1  0  0  0  0
 10 30  1  0  0  0  0
 11 31  1  0  0  0  0
 11 32  1  0  0  0  0
 12 33  1  0  0  0  0
 12 34  1  0  0  0  0
 15 35  1  0  0  0  0
 16 36  1  0  0  0  0
 16 37  1  0  0  0  0
 17 38  1  0  0  0  0
M  END
> <FRED Chemgauss4 score>
-6.692058

$$$$
C38006454	P120930283
  -OEChem-05122015073D

 24 25  0     1  0  0  0  0  0999 V2000
   54.8406  155.3945   -3.2263 C   0  0  0  0  0  0  0  0  0  0  0  0
   53.1377  155.6995   -4.5836 C   0  0  0  0  0  0  0  0  0  0  0  0
   54.5064  155.5852   -4.5805 C   0  0  0  0  0  0  0  0  0  0  0  0
   59.2079  153.1999   -6.8389 C   0  0  0  0  0  0  0  0  0  0  0  0
   58.4154  155.2456   -6.6525 C   0  0  0  0  0  0  0  0  0  0  0  0
   57.7713  153.0798   -7.3293 C   0  0  0  0  0  0  0  0  0  0  0  0
   57.2056  154.4574   -7.0548 C   0  0  1  0  0  0  0  0  0  0  0  0
   55.4346  155.6488   -5.7575 C   0  0  0  0  0  0  0  0  0  0  0  0
   53.7704  155.3876   -2.4272 N   0  0  0  0  0  0  0  0  0  0  0  0
   59.5074  154.4223   -6.5049 N   0  0  0  0  0  0  0  0  0  0  0  0
   52.7504  155.5754   -3.2817 N   0  0  0  0  0  0  0  0  0  0  0  0
   56.2323  154.4043   -5.9396 N   0  3  0  0  0  0  0  0  0  0  0  0
   59.9285  152.1840   -6.8213 O   0  5  0  0  0  0  0  0  0  0  0  0
   58.3986  156.4523   -6.4434 O   0  0  0  0  0  0  0  0  0  0  0  0
   55.8186  155.2597   -2.7858 H   0  0  0  0  0  0  0  0  0  0  0  0
   52.4188  155.8546   -5.3755 H   0  0  0  0  0  0  0  0  0  0  0  0
   57.7804  152.8713   -8.4060 H   0  0  0  0  0  0  0  0  0  0  0  0
   57.2378  152.2704   -6.8189 H   0  0  0  0  0  0  0  0  0  0  0  0
   56.7028  154.8930   -7.9219 H   0  0  0  0  0  0  0  0  0  0  0  0
   54.8817  155.8072   -6.6897 H   0  0  0  0  0  0  0  0  0  0  0  0
   56.1521  156.4696   -5.6516 H   0  0  0  0  0  0  0  0  0  0  0  0
   51.8108  155.6097   -2.9065 H   0  0  0  0  0  0  0  0  0  0  0  0
   55.5866  153.6136   -6.0853 H   0  0  0  0  0  0  0  0  0  0  0  0
   56.7292  154.1958   -5.0604 H   0  0  0  0  0  0  0  0  0  0  0  0
  1  3  1  0  0  0  0
  1  9  2  0  0  0  0
  2  3  2  0  0  0  0
  2 11  1  0  0  0  0
  3  8  1  0  0  0  0
  4  6  1  0  0  0  0
  4 10  2  0  0  0  0
  4 13  1  0  0  0  0
  5  7  1  0  0  0  0
  5 10  1  0  0  0  0
  5 14  2  0  0  0  0
  6  7  1  0  0  0  0
  7 12  1  0  0  0  0
  8 12  1  0  0  0  0
  9 11  1  0  0  0  0
  1 15  1  0  0  0  0
  2 16  1  0  0  0  0
  6 17  1  0  0  0  0
  6 18  1  0  0  0  0
  7 19  1  0  0  0  0
  8 20  1  0  0  0  0
  8 21  1  0  0  0  0
 11 22  1  0  0  0  0
 12 23  1  0  0  0  0
 12 24  1  0  0  0  0
M  CHG  2  12   1  13  -1
M  END
> <FRED Chemgauss4 score>
-6.689857

$$$$
C87440497	P136787961
  -OEChem-05122015073D

 19 19  0     0  0  0  0  0  0999 V2000
   55.2285  157.8286   -2.6589 C   0  0  0  0  0  0  0  0  0  0  0  0
   55.1424  156.3739   -2.9481 C   0  0  0  0  0  0  0  0  0  0  0  0
   55.1378  154.6449   -4.7275 C   0  0  0  0  0  0  0  0  0  0  0  0
   54.5408  154.5814   -6.1207 C   0  0  0  0  0  0  0  0  0  0  0  0
   56.2971  158.5811   -2.9831 N   0  5  0  0  0  0  0  0  0  0  0  0
   54.2455  158.5177   -2.0488 N   0  0  0  0  0  0  0  0  0  0  0  0
   55.9621  159.8217   -2.5481 N   0  0  0  0  0  0  0  0  0  0  0  0
   54.7296  159.7837   -1.9868 N   0  0  0  0  0  0  0  0  0  0  0  0
   55.2320  156.0504   -4.2738 N   0  0  0  0  0  0  0  0  0  0  0  0
   53.1614  155.1278   -6.1001 N   0  3  0  0  0  0  0  0  0  0  0  0
   54.9819  155.5861   -2.0196 O   0  0  0  0  0  0  0  0  0  0  0  0
   54.5334  154.0811   -4.0092 H   0  0  0  0  0  0  0  0  0  0  0  0
   56.1464  154.2192   -4.7319 H   0  0  0  0  0  0  0  0  0  0  0  0
   54.4631  153.5492   -6.4737 H   0  0  0  0  0  0  0  0  0  0  0  0
   55.1063  155.1763   -6.8443 H   0  0  0  0  0  0  0  0  0  0  0  0
   55.2992  156.7307   -5.0029 H   0  0  0  0  0  0  0  0  0  0  0  0
   52.6063  154.7515   -6.8758 H   0  0  0  0  0  0  0  0  0  0  0  0
   53.1712  156.1499   -6.1849 H   0  0  0  0  0  0  0  0  0  0  0  0
   52.6849  154.8876   -5.2243 H   0  0  0  0  0  0  0  0  0  0  0  0
  1  2  1  0  0  0  0
  1  5  1  0  0  0  0
  1  6  2  0  0  0  0
  2  9  1  0  0  0  0
  2 11  2  0  0  0  0
  3  4  1  0  0  0  0
  3  9  1  0  0  0  0
  4 10  1  0  0  0  0
  5  7  1  0  0  0  0
  6  8  1  0  0  0  0
  7  8  2  0  0  0  0
  3 12  1  0  0  0  0
  3 13  1  0  0  0  0
  4 14  1  0  0  0  0
  4 15  1  0  0  0  0
  9 16  1  0  0  0  0
 10 17  1  0  0  0  0
 10 18  1  0  0  0  0
 10 19  1  0  0  0  0
M  CHG  2   5  -1  10   1
M  END
> <FRED Chemgauss4 score>
-6.687042

$$$$
C42294727	P63999288
  -OEChem-05122015073D

 28 28  0     1  0  0  0  0  0999 V2000
   54.6469  153.5238   -6.8741 C   0  0  0  0  0  0  0  0  0  0  0  0
   52.8903  155.6131   -3.4627 C   0  0  0  0  0  0  0  0  0  0  0  0
   56.7758  155.6630   -5.5886 C   0  0  0  0  0  0  0  0  0  0  0  0
   56.1014  155.5366   -6.9554 C   0  0  0  0  0  0  0  0  0  0  0  0
   55.7535  155.1628   -4.5790 C   0  0  0  0  0  0  0  0  0  0  0  0
   54.6992  155.0085   -6.6719 C   0  0  2  0  0  0  0  0  0  0  0  0
   54.2202  151.7612   -8.5752 C   0  0  0  0  0  0  0  0  0  0  0  0
   53.3516  154.7475   -4.6125 C   0  0  0  0  0  0  0  0  0  0  0  0
   54.4860  155.3707   -5.2703 N   0  0  1  0  0  0  0  0  0  0  0  0
   51.9480  156.5411   -3.8510 N   0  0  0  0  0  0  0  0  0  0  0  0
   54.3234  153.1425   -8.1623 N   0  0  0  0  0  0  0  0  0  0  0  0
   54.8841  152.7770   -5.9319 O   0  0  0  0  0  0  0  0  0  0  0  0
   53.2752  155.4766   -2.3046 O   0  0  0  0  0  0  0  0  0  0  0  0
   57.6825  155.0321   -5.5610 H   0  0  0  0  0  0  0  0  0  0  0  0
   57.0960  156.6978   -5.3825 H   0  0  0  0  0  0  0  0  0  0  0  0
   56.0345  156.5346   -7.4115 H   0  0  0  0  0  0  0  0  0  0  0  0
   56.6965  154.9054   -7.6282 H   0  0  0  0  0  0  0  0  0  0  0  0
   55.9207  154.1069   -4.3291 H   0  0  0  0  0  0  0  0  0  0  0  0
   55.8205  155.7548   -3.6531 H   0  0  0  0  0  0  0  0  0  0  0  0
   53.9881  155.4950   -7.3619 H   0  0  0  0  0  0  0  0  0  0  0  0
   55.1890  151.4026   -8.9328 H   0  0  0  0  0  0  0  0  0  0  0  0
   53.4886  151.6615   -9.3816 H   0  0  0  0  0  0  0  0  0  0  0  0
   53.9027  151.1382   -7.7348 H   0  0  0  0  0  0  0  0  0  0  0  0
   52.5563  154.6249   -5.3527 H   0  0  0  0  0  0  0  0  0  0  0  0
   53.6621  153.7703   -4.2329 H   0  0  0  0  0  0  0  0  0  0  0  0
   51.6339  156.5935   -4.8144 H   0  0  0  0  0  0  0  0  0  0  0  0
   51.5336  157.2004   -3.1999 H   0  0  0  0  0  0  0  0  0  0  0  0
   54.1497  153.8675   -8.8519 H   0  0  0  0  0  0  0  0  0  0  0  0
  1  6  1  0  0  0  0
  1 11  1  0  0  0  0
  1 12  2  0  0  0  0
  2  8  1  0  0  0  0
  2 10  1  0  0  0  0
  2 13  2  0  0  0  0
  3  4  1  0  0  0  0
  3  5  1  0  0  0  0
  4  6  1  0  0  0  0
  5  9  1  0  0  0  0
  6  9  1  0  0  0  0
  7 11  1  0  0  0  0
  8  9  1  0  0  0  0
  3 14  1  0  0  0  0
  3 15  1  0  0  0  0
  4 16  1  0  0  0  0
  4 17  1  0  0  0  0
  5 18  1  0  0  0  0
  5 19  1  0  0  0  0
  6 20  1  0  0  0  0
  7 21  1  0  0  0  0
  7 22  1  0  0  0  0
  7 23  1  0  0  0  0
  8 24  1  0  0  0  0
  8 25  1  0  0  0  0
 10 26  1  0  0  0  0
 10 27  1  0  0  0  0
 11 28  1  0  0  0  0
M  END
> <FRED Chemgauss4 score>
-6.686922

$$$$
C51995896	P77859556
  -OEChem-05122015073D

 40 41  0     1  0  0  0  0  0999 V2000
   59.3042  162.8062   -4.4197 C   0  0  0  0  0  0  0  0  0  0  0  0
   60.1443  163.8443   -4.7574 C   0  0  0  0  0  0  0  0  0  0  0  0
   61.1166  161.6529   -5.3070 C   0  0  0  0  0  0  0  0  0  0  0  0
   59.8674  161.5367   -4.7379 C   0  0  0  0  0  0  0  0  0  0  0  0
   59.2171  160.2218   -4.5025 C   0  0  0  0  0  0  0  0  0  0  0  0
   55.5126  157.6164   -3.5199 C   0  0  0  0  0  0  0  0  0  0  0  0
   56.5571  154.1333   -6.0935 C   0  0  0  0  0  0  0  0  0  0  0  0
   55.2839  154.0476   -6.9322 C   0  0  0  0  0  0  0  0  0  0  0  0
   56.2553  154.1448   -4.5929 C   0  0  0  0  0  0  0  0  0  0  0  0
   54.2797  155.1335   -6.5581 C   0  0  0  0  0  0  0  0  0  0  0  0
   55.2532  155.2396   -4.2108 C   0  0  2  0  0  0  0  0  0  0  0  0
   53.9790  155.1206   -5.0587 C   0  0  1  0  0  0  0  0  0  0  0  0
   56.3041  158.8631   -3.8721 C   0  0  0  0  0  0  0  0  0  0  0  0
   57.6079  158.9655   -3.0925 C   0  0  0  0  0  0  0  0  0  0  0  0
   58.3028  160.1750   -3.4601 N   0  0  0  0  0  0  0  0  0  0  0  0
   55.8569  156.5500   -4.3348 N   0  0  0  0  0  0  0  0  0  0  0  0
   59.5264  159.2647   -5.2073 O   0  0  0  0  0  0  0  0  0  0  0  0
   54.6782  157.5820   -2.6196 O   0  0  0  0  0  0  0  0  0  0  0  0
   53.0803  156.1743   -4.7281 O   0  0  0  0  0  0  0  0  0  0  0  0
   61.6055  163.2873   -5.4552 S   0  0  0  0  0  0  0  0  0  0  0  0
   58.3323  162.9561   -3.9663 H   0  0  0  0  0  0  0  0  0  0  0  0
   59.9687  164.9030   -4.6283 H   0  0  0  0  0  0  0  0  0  0  0  0
   61.7707  160.8609   -5.6448 H   0  0  0  0  0  0  0  0  0  0  0  0
   57.2087  153.2841   -6.3290 H   0  0  0  0  0  0  0  0  0  0  0  0
   57.1110  155.0402   -6.3648 H   0  0  0  0  0  0  0  0  0  0  0  0
   55.5362  154.1285   -7.9954 H   0  0  0  0  0  0  0  0  0  0  0  0
   54.8221  153.0629   -6.7889 H   0  0  0  0  0  0  0  0  0  0  0  0
   55.8447  153.1682   -4.3064 H   0  0  0  0  0  0  0  0  0  0  0  0
   57.1916  154.2716   -4.0363 H   0  0  0  0  0  0  0  0  0  0  0  0
   54.6604  156.1183   -6.8579 H   0  0  0  0  0  0  0  0  0  0  0  0
   53.3498  154.9940   -7.1229 H   0  0  0  0  0  0  0  0  0  0  0  0
   54.9937  155.1459   -3.1502 H   0  0  0  0  0  0  0  0  0  0  0  0
   53.4753  154.1782   -4.8076 H   0  0  0  0  0  0  0  0  0  0  0  0
   56.5106  158.8481   -4.9495 H   0  0  0  0  0  0  0  0  0  0  0  0
   55.6758  159.7398   -3.6706 H   0  0  0  0  0  0  0  0  0  0  0  0
   58.2492  158.1022   -3.3002 H   0  0  0  0  0  0  0  0  0  0  0  0
   57.4122  158.9739   -2.0148 H   0  0  0  0  0  0  0  0  0  0  0  0
   58.1461  160.9948   -2.8809 H   0  0  0  0  0  0  0  0  0  0  0  0
   56.5625  156.6935   -5.0493 H   0  0  0  0  0  0  0  0  0  0  0  0
   52.2703  156.0188   -5.2389 H   0  0  0  0  0  0  0  0  0  0  0  0
  1  2  2  0  0  0  0
  1  4  1  0  0  0  0
  2 20  1  0  0  0  0
  3  4  2  0  0  0  0
  3 20  1  0  0  0  0
  4  5  1  0  0  0  0
  5 15  1  0  0  0  0
  5 17  2  0  0  0  0
  6 13  1  0  0  0  0
  6 16  1  0  0  0  0
  6 18  2  0  0  0  0
  7  8  1  0  0  0  0
  7  9  1  0  0  0  0
  8 10  1  0  0  0  0
  9 11  1  0  0  0  0
 10 12  1  0  0  0  0
 11 12  1  0  0  0  0
 11 16  1  0  0  0  0
 12 19  1  0  0  0  0
 13 14  1  0  0  0  0
 14 15  1  0  0  0  0
  1 21  1  0  0  0  0
  2 22  1  0  0  0  0
  3 23  1  0  0  0  0
  7 24  1  0  0  0  0
  7 25  1  0  0  0  0
  8 26  1  0  0  0  0
  8 27  1  0  0  0  0
  9 28  1  0  0  0  0
  9 29  1  0  0  0  0
 10 30  1  0  0  0  0
 10 31  1  0  0  0  0
 11 32  1  0  0  0  0
 12 33  1  0  0  0  0
 13 34  1  0  0  0  0
 13 35  1  0  0  0  0
 14 36  1  0  0  0  0
 14 37  1  0  0  0  0
 15 38  1  0  0  0  0
 16 39  1  0  0  0  0
 19 40  1  0  0  0  0
M  END
> <FRED Chemgauss4 score>
-6.677290

$$$$
C94072275	P147433706
  -OEChem-05122015073D

 44 45  0     0  0  0  0  0  0999 V2000
   62.1228  163.0521   -6.3759 C   0  0  0  0  0  0  0  0  0  0  0  0
   62.3983  163.4449   -5.0821 C   0  0  0  0  0  0  0  0  0  0  0  0
   61.0479  162.1997   -6.5250 C   0  0  0  0  0  0  0  0  0  0  0  0
   60.6623  162.2128   -4.2849 C   0  0  0  0  0  0  0  0  0  0  0  0
   58.8524  162.4663   -2.8098 C   0  0  0  0  0  0  0  0  0  0  0  0
   55.0000  159.7579   -1.5926 C   0  0  0  0  0  0  0  0  0  0  0  0
   56.6644  158.7443   -3.1640 C   0  0  0  0  0  0  0  0  0  0  0  0
   56.1099  160.6651   -1.0629 C   0  0  0  0  0  0  0  0  0  0  0  0
   57.7235  159.6822   -2.5858 C   0  0  0  0  0  0  0  0  0  0  0  0
   55.5657  158.4537   -2.1456 C   0  0  0  0  0  0  0  0  0  0  0  0
   58.1464  161.8374   -1.5954 C   0  0  0  0  0  0  0  0  0  0  0  0
   53.6787  155.6082   -3.5257 C   0  0  0  0  0  0  0  0  0  0  0  0
   53.3598  156.1728   -4.8995 C   0  0  0  0  0  0  0  0  0  0  0  0
   54.8473  156.3409   -2.8825 C   0  0  0  0  0  0  0  0  0  0  0  0
   61.6860  163.0431   -4.0090 N   0  0  0  0  0  0  0  0  0  0  0  0
   60.2930  161.7583   -5.4975 N   0  0  0  0  0  0  0  0  0  0  0  0
   59.8964  161.7729   -3.1884 N   0  0  0  0  0  0  0  0  0  0  0  0
   57.1164  160.9301   -2.1011 N   0  0  0  0  0  0  0  0  0  0  0  0
   52.9622  157.5943   -4.7602 N   0  3  0  0  0  0  0  0  0  0  0  0
   58.3591  163.5255   -3.2598 O   0  5  0  0  0  0  0  0  0  0  0  0
   54.5158  157.7172   -2.7597 O   0  0  0  0  0  0  0  0  0  0  0  0
   62.7111  163.3902   -7.2183 H   0  0  0  0  0  0  0  0  0  0  0  0
   63.2244  164.1140   -4.8660 H   0  0  0  0  0  0  0  0  0  0  0  0
   60.7550  161.8369   -7.5045 H   0  0  0  0  0  0  0  0  0  0  0  0
   54.2781  159.5404   -0.7960 H   0  0  0  0  0  0  0  0  0  0  0  0
   54.4304  160.2775   -2.3750 H   0  0  0  0  0  0  0  0  0  0  0  0
   56.2251  159.1843   -4.0694 H   0  0  0  0  0  0  0  0  0  0  0  0
   57.1297  157.8050   -3.4863 H   0  0  0  0  0  0  0  0  0  0  0  0
   55.6543  161.6082   -0.7377 H   0  0  0  0  0  0  0  0  0  0  0  0
   56.5718  160.2049   -0.1795 H   0  0  0  0  0  0  0  0  0  0  0  0
   58.2659  159.1723   -1.7786 H   0  0  0  0  0  0  0  0  0  0  0  0
   58.4498  159.9058   -3.3767 H   0  0  0  0  0  0  0  0  0  0  0  0
   55.9663  157.8492   -1.3232 H   0  0  0  0  0  0  0  0  0  0  0  0
   58.8536  161.2947   -0.9578 H   0  0  0  0  0  0  0  0  0  0  0  0
   57.6820  162.6273   -0.9946 H   0  0  0  0  0  0  0  0  0  0  0  0
   53.9148  154.5386   -3.5952 H   0  0  0  0  0  0  0  0  0  0  0  0
   52.8020  155.6764   -2.8691 H   0  0  0  0  0  0  0  0  0  0  0  0
   52.5207  155.6533   -5.3716 H   0  0  0  0  0  0  0  0  0  0  0  0
   54.2286  156.1498   -5.5639 H   0  0  0  0  0  0  0  0  0  0  0  0
   55.7489  156.2533   -3.4970 H   0  0  0  0  0  0  0  0  0  0  0  0
   55.0560  155.9427   -1.8844 H   0  0  0  0  0  0  0  0  0  0  0  0
   53.7559  158.1705   -4.4594 H   0  0  0  0  0  0  0  0  0  0  0  0
   52.2145  157.7002   -4.0654 H   0  0  0  0  0  0  0  0  0  0  0  0
   52.6198  157.9695   -5.6516 H   0  0  0  0  0  0  0  0  0  0  0  0
  1  2  1  0  0  0  0
  1  3  2  0  0  0  0
  2 15  2  0  0  0  0
  3 16  1  0  0  0  0
  4 15  1  0  0  0  0
  4 16  2  0  0  0  0
  4 17  1  0  0  0  0
  5 11  1  0  0  0  0
  5 17  2  0  0  0  0
  5 20  1  0  0  0  0
  6  8  1  0  0  0  0
  6 10  1  0  0  0  0
  7  9  1  0  0  0  0
  7 10  1  0  0  0  0
  8 18  1  0  0  0  0
  9 18  1  0  0  0  0
 10 21  1  0  0  0  0
 11 18  1  0  0  0  0
 12 13  1  0  0  0  0
 12 14  1  0  0  0  0
 13 19  1  0  0  0  0
 14 21  1  0  0  0  0
  1 22  1  0  0  0  0
  2 23  1  0  0  0  0
  3 24  1  0  0  0  0
  6 25  1  0  0  0  0
  6 26  1  0  0  0  0
  7 27  1  0  0  0  0
  7 28  1  0  0  0  0
  8 29  1  0  0  0  0
  8 30  1  0  0  0  0
  9 31  1  0  0  0  0
  9 32  1  0  0  0  0
 10 33  1  0  0  0  0
 11 34  1  0  0  0  0
 11 35  1  0  0  0  0
 12 36  1  0  0  0  0
 12 37  1  0  0  0  0
 13 38  1  0  0  0  0
 13 39  1  0  0  0  0
 14 40  1  0  0  0  0
 14 41  1  0  0  0  0
 19 42  1  0  0  0  0
 19 43  1  0  0  0  0
 19 44  1  0  0  0  0
M  CHG  2  19   1  20  -1
M  END
> <FRED Chemgauss4 score>
-6.676736

$$$$
C84081042	P131595110
  -OEChem-05122015073D

 33 33  0     1  0  0  0  0  0999 V2000
   57.5951  162.1120   -3.5112 C   0  0  0  0  0  0  0  0  0  0  0  0
   56.9392  163.9078   -2.5755 C   0  0  0  0  0  0  0  0  0  0  0  0
   56.3601  161.8206   -2.9816 C   0  0  0  0  0  0  0  0  0  0  0  0
   57.3611  157.1290   -4.1042 C   0  0  0  0  0  0  0  0  0  0  0  0
   55.5248  160.5650   -2.9791 C   0  0  0  0  0  0  0  0  0  0  0  0
   54.4426  156.6297   -5.7346 C   0  0  0  0  0  0  0  0  0  0  0  0
   55.0598  156.2860   -4.3815 C   0  0  0  0  0  0  0  0  0  0  0  0
   53.5594  155.5089   -6.2686 C   0  0  0  0  0  0  0  0  0  0  0  0
   57.9500  163.4127   -3.2547 N   0  0  0  0  0  0  0  0  0  0  0  0
   56.2905  159.4822   -2.3776 N   0  5  0  0  0  0  0  0  0  0  0  0
   55.9528  162.9805   -2.3850 N   0  0  0  0  0  0  0  0  0  0  0  0
   55.9139  157.4001   -3.8875 N   0  0  1  0  0  0  0  0  0  0  0  0
   52.4322  155.2917   -5.3290 N   0  3  0  0  0  0  0  0  0  0  0  0
   55.9220  157.1492   -1.3445 O   0  0  0  0  0  0  0  0  0  0  0  0
   54.0145  158.2724   -2.4171 O   0  0  0  0  0  0  0  0  0  0  0  0
   55.4656  158.1160   -2.3410 S   0  0  0  0  0  0  0  0  0  0  0  0
   58.2488  161.4529   -4.0645 H   0  0  0  0  0  0  0  0  0  0  0  0
   56.8595  164.9169   -2.1970 H   0  0  0  0  0  0  0  0  0  0  0  0
   57.9597  157.9642   -3.7314 H   0  0  0  0  0  0  0  0  0  0  0  0
   57.5655  156.9977   -5.1702 H   0  0  0  0  0  0  0  0  0  0  0  0
   57.6585  156.2193   -3.5757 H   0  0  0  0  0  0  0  0  0  0  0  0
   54.5863  160.7472   -2.4411 H   0  0  0  0  0  0  0  0  0  0  0  0
   55.2316  160.3238   -4.0081 H   0  0  0  0  0  0  0  0  0  0  0  0
   55.2351  156.8568   -6.4590 H   0  0  0  0  0  0  0  0  0  0  0  0
   53.8433  157.5418   -5.6220 H   0  0  0  0  0  0  0  0  0  0  0  0
   54.2639  156.1051   -3.6516 H   0  0  0  0  0  0  0  0  0  0  0  0
   55.6559  155.3701   -4.4530 H   0  0  0  0  0  0  0  0  0  0  0  0
   53.1166  155.7539   -7.2381 H   0  0  0  0  0  0  0  0  0  0  0  0
   54.0999  154.5604   -6.3392 H   0  0  0  0  0  0  0  0  0  0  0  0
   55.0814  163.1295   -1.8931 H   0  0  0  0  0  0  0  0  0  0  0  0
   51.7893  154.5768   -5.6861 H   0  0  0  0  0  0  0  0  0  0  0  0
   51.8981  156.1565   -5.1912 H   0  0  0  0  0  0  0  0  0  0  0  0
   52.7729  154.9811   -4.4127 H   0  0  0  0  0  0  0  0  0  0  0  0
  1  3  2  0  0  0  0
  1  9  1  0  0  0  0
  2  9  2  0  0  0  0
  2 11  1  0  0  0  0
  3  5  1  0  0  0  0
  3 11  1  0  0  0  0
  4 12  1  0  0  0  0
  5 10  1  0  0  0  0
  6  7  1  0  0  0  0
  6  8  1  0  0  0  0
  7 12  1  0  0  0  0
  8 13  1  0  0  0  0
 10 16  1  0  0  0  0
 12 16  1  0  0  0  0
 14 16  2  0  0  0  0
 15 16  2  0  0  0  0
  1 17  1  0  0  0  0
  2 18  1  0  0  0  0
  4 19  1  0  0  0  0
  4 20  1  0  0  0  0
  4 21  1  0  0  0  0
  5 22  1  0  0  0  0
  5 23  1  0  0  0  0
  6 24  1  0  0  0  0
  6 25  1  0  0  0  0
  7 26  1  0  0  0  0
  7 27  1  0  0  0  0
  8 28  1  0  0  0  0
  8 29  1  0  0  0  0
 11 30  1  0  0  0  0
 13 31  1  0  0  0  0
 13 32  1  0  0  0  0
 13 33  1  0  0  0  0
M  CHG  2  10  -1  13   1
M  END
> <FRED Chemgauss4 score>
-6.669688

$$$$
C83694167	P130926929
  -OEChem-05122015073D

 29 29  0     1  0  0  0  0  0999 V2000
   59.7013  155.3446   -7.9782 C   0  0  0  0  0  0  0  0  0  0  0  0
   58.7288  154.4165   -7.2946 C   0  0  0  0  0  0  0  0  0  0  0  0
   58.9026  156.6279   -8.0623 C   0  0  0  0  0  0  0  0  0  0  0  0
   58.0647  155.3531   -6.3003 C   0  0  2  0  0  0  0  0  0  0  0  0
   56.6683  154.9186   -5.8995 C   0  0  0  0  0  0  0  0  0  0  0  0
   54.4140  156.1159   -3.2153 C   0  0  0  0  0  0  0  0  0  0  0  0
   53.7528  155.8592   -5.6312 C   0  0  0  0  0  0  0  0  0  0  0  0
   54.7582  155.4627   -4.5519 C   0  0  0  0  0  0  0  0  0  0  0  0
   56.1159  155.8408   -4.9597 N   0  0  0  0  0  0  0  0  0  0  0  0
   58.0112  156.6408   -6.9373 O   0  0  0  0  0  0  0  0  0  0  0  0
   53.3503  155.3984   -2.5993 O   0  0  0  0  0  0  0  0  0  0  0  0
   52.4501  155.4411   -5.2393 O   0  0  0  0  0  0  0  0  0  0  0  0
   60.5828  155.4932   -7.3433 H   0  0  0  0  0  0  0  0  0  0  0  0
   60.0396  154.9873   -8.9543 H   0  0  0  0  0  0  0  0  0  0  0  0
   58.0039  154.0399   -8.0264 H   0  0  0  0  0  0  0  0  0  0  0  0
   59.2098  153.5593   -6.8156 H   0  0  0  0  0  0  0  0  0  0  0  0
   59.5363  157.5190   -8.0410 H   0  0  0  0  0  0  0  0  0  0  0  0
   58.2917  156.6552   -8.9709 H   0  0  0  0  0  0  0  0  0  0  0  0
   58.6892  155.4608   -5.4054 H   0  0  0  0  0  0  0  0  0  0  0  0
   56.7170  153.9360   -5.4409 H   0  0  0  0  0  0  0  0  0  0  0  0
   56.0318  154.8889   -6.7779 H   0  0  0  0  0  0  0  0  0  0  0  0
   54.0786  157.1478   -3.3623 H   0  0  0  0  0  0  0  0  0  0  0  0
   55.2731  156.1154   -2.5356 H   0  0  0  0  0  0  0  0  0  0  0  0
   53.9921  155.3948   -6.5941 H   0  0  0  0  0  0  0  0  0  0  0  0
   53.7293  156.9464   -5.7586 H   0  0  0  0  0  0  0  0  0  0  0  0
   54.7830  154.3717   -4.4447 H   0  0  0  0  0  0  0  0  0  0  0  0
   56.6981  155.8898   -4.1121 H   0  0  0  0  0  0  0  0  0  0  0  0
   53.1646  155.8445   -1.7578 H   0  0  0  0  0  0  0  0  0  0  0  0
   51.8459  155.7112   -5.9490 H   0  0  0  0  0  0  0  0  0  0  0  0
  1  2  1  0  0  0  0
  1  3  1  0  0  0  0
  2  4  1  0  0  0  0
  3 10  1  0  0  0  0
  4  5  1  0  0  0  0
  4 10  1  0  0  0  0
  5  9  1  0  0  0  0
  6  8  1  0  0  0  0
  6 11  1  0  0  0  0
  7  8  1  0  0  0  0
  7 12  1  0  0  0  0
  8  9  1  0  0  0  0
  1 13  1  0  0  0  0
  1 14  1  0  0  0  0
  2 15  1  0  0  0  0
  2 16  1  0  0  0  0
  3 17  1  0  0  0  0
  3 18  1  0  0  0  0
  4 19  1  0  0  0  0
  5 20  1  0  0  0  0
  5 21  1  0  0  0  0
  6 22  1  0  0  0  0
  6 23  1  0  0  0  0
  7 24  1  0  0  0  0
  7 25  1  0  0  0  0
  8 26  1  0  0  0  0
  9 27  1  0  0  0  0
 11 28  1  0  0  0  0
 12 29  1  0  0  0  0
M  END
> <FRED Chemgauss4 score>
-6.658905

$$$$
C82515433	P128953608
  -OEChem-05122015073D

 31 32  0     1  0  0  0  0  0999 V2000
   57.6897  159.3587   -7.4303 C   0  0  0  0  0  0  0  0  0  0  0  0
   58.5602  158.8254   -8.4243 C   0  0  0  0  0  0  0  0  0  0  0  0
   57.8361  158.7209   -6.2182 C   0  0  0  0  0  0  0  0  0  0  0  0
   59.3390  157.8003   -7.9338 C   0  0  0  0  0  0  0  0  0  0  0  0
   53.7957  156.5239   -3.1347 C   0  0  0  0  0  0  0  0  0  0  0  0
   55.3077  156.5023   -3.0345 C   0  0  0  0  0  0  0  0  0  0  0  0
   56.0359  156.3787   -4.3658 C   0  0  0  0  0  0  0  0  0  0  0  0
   53.9790  157.0348   -5.5912 C   0  0  0  0  0  0  0  0  0  0  0  0
   55.4600  157.3313   -5.4073 C   0  0  1  0  0  0  0  0  0  0  0  0
   57.3214  160.4064   -4.4034 C   0  0  0  0  0  0  0  0  0  0  0  0
   57.1045  158.9855   -4.9200 C   0  0  1  0  0  0  0  0  0  0  0  0
   53.2538  156.9113   -4.3391 N   0  0  0  0  0  0  0  0  0  0  0  0
   55.6824  158.7115   -5.0459 N   0  0  0  0  0  0  0  0  0  0  0  0
   53.1001  156.2798   -2.1468 O   0  0  0  0  0  0  0  0  0  0  0  0
   59.0193  157.4846   -6.2814 S   0  0  0  0  0  0  0  0  0  0  0  0
   60.5154  156.8800   -8.7742 Cl  0  0  0  0  0  0  0  0  0  0  0  0
   56.9927  160.1695   -7.6002 H   0  0  0  0  0  0  0  0  0  0  0  0
   58.6079  159.1804   -9.4461 H   0  0  0  0  0  0  0  0  0  0  0  0
   55.6119  157.4210   -2.5193 H   0  0  0  0  0  0  0  0  0  0  0  0
   55.5931  155.6613   -2.3920 H   0  0  0  0  0  0  0  0  0  0  0  0
   57.1073  156.5626   -4.2206 H   0  0  0  0  0  0  0  0  0  0  0  0
   55.9415  155.3484   -4.7330 H   0  0  0  0  0  0  0  0  0  0  0  0
   53.4786  157.8007   -6.1939 H   0  0  0  0  0  0  0  0  0  0  0  0
   53.8522  156.0788   -6.1129 H   0  0  0  0  0  0  0  0  0  0  0  0
   55.9733  157.1538   -6.3630 H   0  0  0  0  0  0  0  0  0  0  0  0
   56.9734  161.1481   -5.1308 H   0  0  0  0  0  0  0  0  0  0  0  0
   56.7710  160.5634   -3.4689 H   0  0  0  0  0  0  0  0  0  0  0  0
   58.3775  160.6093   -4.1928 H   0  0  0  0  0  0  0  0  0  0  0  0
   57.4699  158.2912   -4.1534 H   0  0  0  0  0  0  0  0  0  0  0  0
   52.2623  157.1294   -4.3534 H   0  0  0  0  0  0  0  0  0  0  0  0
   55.2829  159.3071   -5.7669 H   0  0  0  0  0  0  0  0  0  0  0  0
  1  2  1  0  0  0  0
  1  3  2  0  0  0  0
  2  4  2  0  0  0  0
  3 11  1  0  0  0  0
  3 15  1  0  0  0  0
  4 15  1  0  0  0  0
  4 16  1  0  0  0  0
  5  6  1  0  0  0  0
  5 12  1  0  0  0  0
  5 14  2  0  0  0  0
  6  7  1  0  0  0  0
  7  9  1  0  0  0  0
  8  9  1  0  0  0  0
  8 12  1  0  0  0  0
  9 13  1  0  0  0  0
 10 11  1  0  0  0  0
 11 13  1  0  0  0  0
  1 17  1  0  0  0  0
  2 18  1  0  0  0  0
  6 19  1  0  0  0  0
  6 20  1  0  0  0  0
  7 21  1  0  0  0  0
  7 22  1  0  0  0  0
  8 23  1  0  0  0  0
  8 24  1  0  0  0  0
  9 25  1  0  0  0  0
 10 26  1  0  0  0  0
 10 27  1  0  0  0  0
 10 28  1  0  0  0  0
 11 29  1  0  0  0  0
 12 30  1  0  0  0  0
 13 31  1  0  0  0  0
M  END
> <FRED Chemgauss4 score>
-6.657907

$$$$
C36239306	P53850107
  -OEChem-05122015073D

 34 35  0     1  0  0  0  0  0999 V2000
   55.6438  156.7547   -4.3890 C   0  0  0  0  0  0  0  0  0  0  0  0
   53.5073  155.8309   -4.0032 C   0  0  0  0  0  0  0  0  0  0  0  0
   58.8735  160.9086   -4.0778 C   0  0  0  0  0  0  0  0  0  0  0  0
   57.9192  160.2794   -3.0707 C   0  0  0  0  0  0  0  0  0  0  0  0
   58.4491  160.5589   -5.5011 C   0  0  0  0  0  0  0  0  0  0  0  0
   57.7407  158.7816   -3.3187 C   0  0  0  0  0  0  0  0  0  0  0  0
   58.2676  159.0427   -5.7070 C   0  0  1  0  0  0  0  0  0  0  0  0
   57.0154  157.1012   -4.8920 C   0  0  0  0  0  0  0  0  0  0  0  0
   59.6273  158.3296   -5.7697 C   0  0  0  0  0  0  0  0  0  0  0  0
   60.2809  158.5128   -7.1237 C   0  0  0  0  0  0  0  0  0  0  0  0
   55.0294  157.3481   -3.3879 N   0  0  0  0  0  0  0  0  0  0  0  0
   53.7767  156.8055   -3.1610 N   0  0  0  0  0  0  0  0  0  0  0  0
   57.3265  158.5149   -4.7007 N   0  0  1  0  0  0  0  0  0  0  0  0
   52.3551  155.1130   -4.0229 N   0  0  0  0  0  0  0  0  0  0  0  0
   61.5189  157.8154   -7.1183 O   0  0  0  0  0  0  0  0  0  0  0  0
   54.7509  155.4948   -5.1354 S   0  0  0  0  0  0  0  0  0  0  0  0
   58.8762  161.9984   -3.9526 H   0  0  0  0  0  0  0  0  0  0  0  0
   59.8961  160.5604   -3.8949 H   0  0  0  0  0  0  0  0  0  0  0  0
   58.3018  160.4410   -2.0519 H   0  0  0  0  0  0  0  0  0  0  0  0
   56.9436  160.7821   -3.1226 H   0  0  0  0  0  0  0  0  0  0  0  0
   57.5114  161.0852   -5.7297 H   0  0  0  0  0  0  0  0  0  0  0  0
   59.2021  160.9452   -6.2049 H   0  0  0  0  0  0  0  0  0  0  0  0
   58.7011  158.2950   -3.1154 H   0  0  0  0  0  0  0  0  0  0  0  0
   57.0112  158.3770   -2.6067 H   0  0  0  0  0  0  0  0  0  0  0  0
   57.7853  158.9139   -6.7223 H   0  0  0  0  0  0  0  0  0  0  0  0
   57.7782  156.5142   -4.3690 H   0  0  0  0  0  0  0  0  0  0  0  0
   57.1099  156.8792   -5.9602 H   0  0  0  0  0  0  0  0  0  0  0  0
   59.4820  157.2694   -5.5582 H   0  0  0  0  0  0  0  0  0  0  0  0
   60.2707  158.7219   -4.9810 H   0  0  0  0  0  0  0  0  0  0  0  0
   59.6551  158.1055   -7.9242 H   0  0  0  0  0  0  0  0  0  0  0  0
   60.4776  159.5700   -7.3287 H   0  0  0  0  0  0  0  0  0  0  0  0
   51.6142  155.2608   -3.3277 H   0  0  0  0  0  0  0  0  0  0  0  0
   52.2170  154.3306   -4.6732 H   0  0  0  0  0  0  0  0  0  0  0  0
   61.9186  157.9466   -7.9934 H   0  0  0  0  0  0  0  0  0  0  0  0
  1  8  1  0  0  0  0
  1 11  2  0  0  0  0
  1 16  1  0  0  0  0
  2 12  2  0  0  0  0
  2 14  1  0  0  0  0
  2 16  1  0  0  0  0
  3  4  1  0  0  0  0
  3  5  1  0  0  0  0
  4  6  1  0  0  0  0
  5  7  1  0  0  0  0
  6 13  1  0  0  0  0
  7  9  1  0  0  0  0
  7 13  1  0  0  0  0
  8 13  1  0  0  0  0
  9 10  1  0  0  0  0
 10 15  1  0  0  0  0
 11 12  1  0  0  0  0
  3 17  1  0  0  0  0
  3 18  1  0  0  0  0
  4 19  1  0  0  0  0
  4 20  1  0  0  0  0
  5 21  1  0  0  0  0
  5 22  1  0  0  0  0
  6 23  1  0  0  0  0
  6 24  1  0  0  0  0
  7 25  1  0  0  0  0
  8 26  1  0  0  0  0
  8 27  1  0  0  0  0
  9 28  1  0  0  0  0
  9 29  1  0  0  0  0
 10 30  1  0  0  0  0
 10 31  1  0  0  0  0
 14 32  1  0  0  0  0
 14 33  1  0  0  0  0
 15 34  1  0  0  0  0
M  END
> <FRED Chemgauss4 score>
-6.657349

$$$$
C69181716	P106379143
  -OEChem-05122015073D

 36 38  0     0  0  0  0  0  0999 V2000
   56.4453  156.6913   -5.0055 C   0  0  0  0  0  0  0  0  0  0  0  0
   55.6270  156.9460   -3.9250 C   0  0  0  0  0  0  0  0  0  0  0  0
   57.6706  158.2179   -4.0166 C   0  0  0  0  0  0  0  0  0  0  0  0
   55.7870  154.2516   -5.6958 C   0  0  0  0  0  0  0  0  0  0  0  0
   57.0635  154.5683   -6.4099 C   0  0  0  0  0  0  0  0  0  0  0  0
   59.8443  160.7371   -2.1798 C   0  0  0  0  0  0  0  0  0  0  0  0
   59.0542  159.4395   -2.3640 C   0  0  0  0  0  0  0  0  0  0  0  0
   59.6148  159.5309   -4.8355 C   0  0  0  0  0  0  0  0  0  0  0  0
   59.1847  161.9585   -2.8143 C   0  0  0  0  0  0  0  0  0  0  0  0
   59.1821  160.8792   -5.4046 C   0  0  0  0  0  0  0  0  0  0  0  0
   56.0986  155.6809   -6.0733 C   0  0  0  0  0  0  0  0  0  0  0  0
   54.3224  156.3595   -3.5567 C   0  0  0  0  0  0  0  0  0  0  0  0
   57.6174  157.4200   -5.0600 N   0  0  0  0  0  0  0  0  0  0  0  0
   58.7253  159.1030   -3.7524 N   0  0  0  0  0  0  0  0  0  0  0  0
   53.2681  157.3457   -3.4660 N   0  0  0  0  0  0  0  0  0  0  0  0
   56.3452  158.1434   -2.9291 S   0  0  0  0  0  0  0  0  0  0  0  0
   59.8215  162.3116   -4.4818 S   0  0  0  0  0  0  0  0  0  0  0  0
   55.0112  153.7397   -6.2529 H   0  0  0  0  0  0  0  0  0  0  0  0
   55.8507  153.9629   -4.6534 H   0  0  0  0  0  0  0  0  0  0  0  0
   57.9868  154.4930   -5.8476 H   0  0  0  0  0  0  0  0  0  0  0  0
   57.1493  154.2706   -7.4484 H   0  0  0  0  0  0  0  0  0  0  0  0
   59.9622  160.9342   -1.1210 H   0  0  0  0  0  0  0  0  0  0  0  0
   60.8340  160.5975   -2.5966 H   0  0  0  0  0  0  0  0  0  0  0  0
   59.6120  158.6053   -1.8913 H   0  0  0  0  0  0  0  0  0  0  0  0
   58.1188  159.5005   -1.7704 H   0  0  0  0  0  0  0  0  0  0  0  0
   59.5886  158.7882   -5.6375 H   0  0  0  0  0  0  0  0  0  0  0  0
   60.6518  159.5722   -4.4940 H   0  0  0  0  0  0  0  0  0  0  0  0
   58.1094  161.8368   -2.8650 H   0  0  0  0  0  0  0  0  0  0  0  0
   59.3874  162.8274   -2.1976 H   0  0  0  0  0  0  0  0  0  0  0  0
   59.5585  160.9638   -6.4322 H   0  0  0  0  0  0  0  0  0  0  0  0
   58.0882  160.9503   -5.4641 H   0  0  0  0  0  0  0  0  0  0  0  0
   55.5233  156.0873   -6.9231 H   0  0  0  0  0  0  0  0  0  0  0  0
   53.9903  155.6039   -4.2903 H   0  0  0  0  0  0  0  0  0  0  0  0
   54.3574  155.8430   -2.5816 H   0  0  0  0  0  0  0  0  0  0  0  0
   52.4870  157.1635   -2.8629 H   0  0  0  0  0  0  0  0  0  0  0  0
   53.2356  158.0818   -4.1475 H   0  0  0  0  0  0  0  0  0  0  0  0
  1  2  2  0  0  0  0
  1 11  1  0  0  0  0
  1 13  1  0  0  0  0
  2 12  1  0  0  0  0
  2 16  1  0  0  0  0
  3 13  2  0  0  0  0
  3 14  1  0  0  0  0
  3 16  1  0  0  0  0
  4  5  1  0  0  0  0
  4 11  1  0  0  0  0
  5 11  1  0  0  0  0
  6  7  1  0  0  0  0
  6  9  1  0  0  0  0
  7 14  1  0  0  0  0
  8 10  1  0  0  0  0
  8 14  1  0  0  0  0
  9 17  1  0  0  0  0
 10 17  1  0  0  0  0
 12 15  1  0  0  0  0
  4 18  1  0  0  0  0
  4 19  1  0  0  0  0
  5 20  1  0  0  0  0
  5 21  1  0  0  0  0
  6 22  1  0  0  0  0
  6 23  1  0  0  0  0
  7 24  1  0  0  0  0
  7 25  1  0  0  0  0
  8 26  1  0  0  0  0
  8 27  1  0  0  0  0
  9 28  1  0  0  0  0
  9 29  1  0  0  0  0
 10 30  1  0  0  0  0
 10 31  1  0  0  0  0
 11 32  1  0  0  0  0
 12 33  1  0  0  0  0
 12 34  1  0  0  0  0
 15 35  1  0  0  0  0
 15 36  1  0  0  0  0
M  END
> <FRED Chemgauss4 score>
-6.656102

$$$$
C92988027	P145579086
  -OEChem-05122015073D

 38 39  0     1  0  0  0  0  0999 V2000
   54.4427  157.3735   -4.1748 C   0  0  0  0  0  0  0  0  0  0  0  0
   59.0053  160.2067   -5.7948 C   0  0  0  0  0  0  0  0  0  0  0  0
   56.1175  155.1639   -5.9657 C   0  0  0  0  0  0  0  0  0  0  0  0
   54.6296  154.9114   -6.1997 C   0  0  0  0  0  0  0  0  0  0  0  0
   56.4428  155.9033   -4.6683 C   0  0  0  0  0  0  0  0  0  0  0  0
   60.9150  162.9771   -6.3214 C   0  0  0  0  0  0  0  0  0  0  0  0
   61.2817  163.1375   -4.8745 C   0  0  0  0  0  0  0  0  0  0  0  0
   53.8090  156.1889   -6.3158 C   0  0  0  0  0  0  0  0  0  0  0  0
   55.8978  157.3312   -4.6279 C   0  0  2  0  0  0  0  0  0  0  0  0
   60.8888  161.7853   -5.4037 C   0  0  0  0  0  0  0  0  0  0  0  0
   57.7197  159.7269   -5.1452 C   0  0  0  0  0  0  0  0  0  0  0  0
   57.9399  158.5285   -4.2323 C   0  0  0  0  0  0  0  0  0  0  0  0
   53.5286  156.7875   -5.0234 N   0  0  0  0  0  0  0  0  0  0  0  0
   59.6429  161.1633   -5.0185 N   0  0  0  0  0  0  0  0  0  0  0  0
   56.6735  158.1101   -3.6562 N   0  0  0  0  0  0  0  0  0  0  0  0
   54.0859  157.8981   -3.1179 O   0  0  0  0  0  0  0  0  0  0  0  0
   59.4115  159.7842   -6.8739 O   0  0  0  0  0  0  0  0  0  0  0  0
   56.6311  154.1946   -5.9491 H   0  0  0  0  0  0  0  0  0  0  0  0
   56.5333  155.7178   -6.8165 H   0  0  0  0  0  0  0  0  0  0  0  0
   54.5306  154.3497   -7.1366 H   0  0  0  0  0  0  0  0  0  0  0  0
   54.2312  154.2729   -5.4018 H   0  0  0  0  0  0  0  0  0  0  0  0
   56.0721  155.3234   -3.8130 H   0  0  0  0  0  0  0  0  0  0  0  0
   57.5377  155.9198   -4.5825 H   0  0  0  0  0  0  0  0  0  0  0  0
   59.9721  163.3957   -6.6514 H   0  0  0  0  0  0  0  0  0  0  0  0
   61.7113  163.0323   -7.0536 H   0  0  0  0  0  0  0  0  0  0  0  0
   62.3249  163.3004   -4.6333 H   0  0  0  0  0  0  0  0  0  0  0  0
   60.5844  163.6643   -4.2348 H   0  0  0  0  0  0  0  0  0  0  0  0
   54.3015  156.9297   -6.9542 H   0  0  0  0  0  0  0  0  0  0  0  0
   52.8361  155.9575   -6.7629 H   0  0  0  0  0  0  0  0  0  0  0  0
   55.9912  157.8219   -5.6027 H   0  0  0  0  0  0  0  0  0  0  0  0
   61.6869  161.0607   -5.5229 H   0  0  0  0  0  0  0  0  0  0  0  0
   57.2892  160.5596   -4.5752 H   0  0  0  0  0  0  0  0  0  0  0  0
   57.0069  159.4691   -5.9386 H   0  0  0  0  0  0  0  0  0  0  0  0
   58.6379  158.7815   -3.4269 H   0  0  0  0  0  0  0  0  0  0  0  0
   58.3766  157.6939   -4.7913 H   0  0  0  0  0  0  0  0  0  0  0  0
   52.5617  156.7730   -4.7135 H   0  0  0  0  0  0  0  0  0  0  0  0
   59.2145  161.4390   -4.1397 H   0  0  0  0  0  0  0  0  0  0  0  0
   56.8437  157.5319   -2.8380 H   0  0  0  0  0  0  0  0  0  0  0  0
  1  9  1  0  0  0  0
  1 13  1  0  0  0  0
  1 16  2  0  0  0  0
  2 11  1  0  0  0  0
  2 14  1  0  0  0  0
  2 17  2  0  0  0  0
  3  4  1  0  0  0  0
  3  5  1  0  0  0  0
  4  8  1  0  0  0  0
  5  9  1  0  0  0  0
  6  7  1  0  0  0  0
  6 10  1  0  0  0  0
  7 10  1  0  0  0  0
  8 13  1  0  0  0  0
  9 15  1  0  0  0  0
 10 14  1  0  0  0  0
 11 12  1  0  0  0  0
 12 15  1  0  0  0  0
  3 18  1  0  0  0  0
  3 19  1  0  0  0  0
  4 20  1  0  0  0  0
  4 21  1  0  0  0  0
  5 22  1  0  0  0  0
  5 23  1  0  0  0  0
  6 24  1  0  0  0  0
  6 25  1  0  0  0  0
  7 26  1  0  0  0  0
  7 27  1  0  0  0  0
  8 28  1  0  0  0  0
  8 29  1  0  0  0  0
  9 30  1  0  0  0  0
 10 31  1  0  0  0  0
 11 32  1  0  0  0  0
 11 33  1  0  0  0  0
 12 34  1  0  0  0  0
 12 35  1  0  0  0  0
 13 36  1  0  0  0  0
 14 37  1  0  0  0  0
 15 38  1  0  0  0  0
M  END
> <FRED Chemgauss4 score>
-6.648444

$$$$
C77727057	P121295132
  -OEChem-05122015083D

 33 34  0     0  0  0  0  0  0999 V2000
   58.0350  161.4064   -3.4709 C   0  0  0  0  0  0  0  0  0  0  0  0
   55.2347  154.7557   -5.0455 C   0  0  0  0  0  0  0  0  0  0  0  0
   59.3589  160.9884   -1.6068 C   0  0  0  0  0  0  0  0  0  0  0  0
   59.3269  161.5139   -2.8797 C   0  0  0  0  0  0  0  0  0  0  0  0
   55.1810  154.1675   -6.3234 C   0  0  0  0  0  0  0  0  0  0  0  0
   57.1287  160.8024   -2.6272 C   0  0  0  0  0  0  0  0  0  0  0  0
   54.4312  155.8652   -5.1442 C   0  0  0  0  0  0  0  0  0  0  0  0
   54.5229  156.9122   -2.8770 C   0  0  0  0  0  0  0  0  0  0  0  0
   54.6048  158.3254   -2.3834 C   0  0  0  0  0  0  0  0  0  0  0  0
   55.8654  152.9450   -6.7773 C   0  0  0  0  0  0  0  0  0  0  0  0
   53.0761  156.8461   -7.0217 C   0  0  0  0  0  0  0  0  0  0  0  0
   55.6776  160.5053   -2.8725 C   0  0  0  0  0  0  0  0  0  0  0  0
   54.4046  154.8470   -7.1716 N   0  0  0  0  0  0  0  0  0  0  0  0
   53.9630  155.8736   -6.4252 N   0  0  0  0  0  0  0  0  0  0  0  0
   54.0950  156.8493   -4.1862 N   0  0  0  0  0  0  0  0  0  0  0  0
   55.4504  159.1044   -3.1400 N   0  0  0  0  0  0  0  0  0  0  0  0
   54.8480  156.0370   -2.0921 O   0  0  0  0  0  0  0  0  0  0  0  0
   53.9305  158.6328   -1.4135 O   0  0  0  0  0  0  0  0  0  0  0  0
   57.8357  160.3684   -1.1292 S   0  0  0  0  0  0  0  0  0  0  0  0
   60.7885  162.2931   -3.7737 Br  0  0  0  0  0  0  0  0  0  0  0  0
   57.7776  161.7528   -4.4645 H   0  0  0  0  0  0  0  0  0  0  0  0
   55.7804  154.4209   -4.1748 H   0  0  0  0  0  0  0  0  0  0  0  0
   60.1998  160.9357   -0.9291 H   0  0  0  0  0  0  0  0  0  0  0  0
   55.2418  152.0504   -6.6080 H   0  0  0  0  0  0  0  0  0  0  0  0
   56.1114  152.9798   -7.8537 H   0  0  0  0  0  0  0  0  0  0  0  0
   56.8249  152.7852   -6.2535 H   0  0  0  0  0  0  0  0  0  0  0  0
   53.6893  157.6396   -7.4570 H   0  0  0  0  0  0  0  0  0  0  0  0
   52.4720  156.3624   -7.7943 H   0  0  0  0  0  0  0  0  0  0  0  0
   52.4143  157.2519   -6.2515 H   0  0  0  0  0  0  0  0  0  0  0  0
   55.0737  160.7848   -2.0023 H   0  0  0  0  0  0  0  0  0  0  0  0
   55.2989  161.0751   -3.7276 H   0  0  0  0  0  0  0  0  0  0  0  0
   53.4703  157.5907   -4.4962 H   0  0  0  0  0  0  0  0  0  0  0  0
   55.9428  158.6868   -3.9244 H   0  0  0  0  0  0  0  0  0  0  0  0
  1  4  1  0  0  0  0
  1  6  2  0  0  0  0
  2  5  1  0  0  0  0
  2  7  2  0  0  0  0
  3  4  2  0  0  0  0
  3 19  1  0  0  0  0
  4 20  1  0  0  0  0
  5 10  1  0  0  0  0
  5 13  2  0  0  0  0
  6 12  1  0  0  0  0
  6 19  1  0  0  0  0
  7 14  1  0  0  0  0
  7 15  1  0  0  0  0
  8  9  1  0  0  0  0
  8 15  1  0  0  0  0
  8 17  2  0  0  0  0
  9 16  1  0  0  0  0
  9 18  2  0  0  0  0
 11 14  1  0  0  0  0
 12 16  1  0  0  0  0
 13 14  1  0  0  0  0
  1 21  1  0  0  0  0
  2 22  1  0  0  0  0
  3 23  1  0  0  0  0
 10 24  1  0  0  0  0
 10 25  1  0  0  0  0
 10 26  1  0  0  0  0
 11 27  1  0  0  0  0
 11 28  1  0  0  0  0
 11 29  1  0  0  0  0
 12 30  1  0  0  0  0
 12 31  1  0  0  0  0
 15 32  1  0  0  0  0
 16 33  1  0  0  0  0
M  END
> <FRED Chemgauss4 score>
-6.646184

$$$$
C37163577	P55271116
  -OEChem-05122015083D

 39 40  0     1  0  0  0  0  0999 V2000
   59.1454  160.9375   -4.0933 C   0  0  0  0  0  0  0  0  0  0  0  0
   58.9703  162.1704   -3.5007 C   0  0  0  0  0  0  0  0  0  0  0  0
   60.2728  162.1555   -5.5269 C   0  0  0  0  0  0  0  0  0  0  0  0
   56.1142  156.2245   -4.9887 C   0  0  0  0  0  0  0  0  0  0  0  0
   56.6908  157.6382   -4.9760 C   0  0  0  0  0  0  0  0  0  0  0  0
   54.7029  156.1885   -4.4127 C   0  0  0  0  0  0  0  0  0  0  0  0
   55.2206  158.2184   -3.0048 C   0  0  0  0  0  0  0  0  0  0  0  0
   56.6386  158.2584   -3.5773 C   0  0  2  0  0  0  0  0  0  0  0  0
   54.6489  156.8020   -3.0146 C   0  0  1  0  0  0  0  0  0  0  0  0
   58.2385  162.5403   -2.2724 C   0  0  0  0  0  0  0  0  0  0  0  0
   61.0893  162.5390   -6.6992 C   0  0  0  0  0  0  0  0  0  0  0  0
   59.1077  159.2674   -2.1937 C   0  0  0  0  0  0  0  0  0  0  0  0
   58.5956  159.6208   -3.5885 C   0  0  1  0  0  0  0  0  0  0  0  0
   59.8917  160.9270   -5.2555 N   0  0  0  0  0  0  0  0  0  0  0  0
   57.1409  159.6107   -3.6045 N   0  0  0  0  0  0  0  0  0  0  0  0
   53.2987  156.8536   -2.5666 O   0  0  0  0  0  0  0  0  0  0  0  0
   59.7697  163.3725   -4.4266 S   0  0  0  0  0  0  0  0  0  0  0  0
   56.1044  155.8393   -6.0146 H   0  0  0  0  0  0  0  0  0  0  0  0
   56.7635  155.5607   -4.4046 H   0  0  0  0  0  0  0  0  0  0  0  0
   57.7259  157.6084   -5.3383 H   0  0  0  0  0  0  0  0  0  0  0  0
   56.1261  158.2589   -5.6846 H   0  0  0  0  0  0  0  0  0  0  0  0
   54.0141  156.7241   -5.0792 H   0  0  0  0  0  0  0  0  0  0  0  0
   54.3372  155.1551   -4.3782 H   0  0  0  0  0  0  0  0  0  0  0  0
   55.2095  158.6079   -1.9785 H   0  0  0  0  0  0  0  0  0  0  0  0
   54.5553  158.8808   -3.5767 H   0  0  0  0  0  0  0  0  0  0  0  0
   57.2932  157.6597   -2.9133 H   0  0  0  0  0  0  0  0  0  0  0  0
   55.2101  156.1736   -2.3128 H   0  0  0  0  0  0  0  0  0  0  0  0
   58.8969  162.4954   -1.3898 H   0  0  0  0  0  0  0  0  0  0  0  0
   57.8237  163.5608   -2.3302 H   0  0  0  0  0  0  0  0  0  0  0  0
   57.3806  161.8722   -2.0858 H   0  0  0  0  0  0  0  0  0  0  0  0
   60.4500  162.7855   -7.5612 H   0  0  0  0  0  0  0  0  0  0  0  0
   61.7246  163.4147   -6.4885 H   0  0  0  0  0  0  0  0  0  0  0  0
   61.7728  161.7302   -7.0058 H   0  0  0  0  0  0  0  0  0  0  0  0
   58.8307  160.0371   -1.4650 H   0  0  0  0  0  0  0  0  0  0  0  0
   58.6828  158.3144   -1.8588 H   0  0  0  0  0  0  0  0  0  0  0  0
   60.1979  159.1587   -2.1726 H   0  0  0  0  0  0  0  0  0  0  0  0
   58.9016  158.8182   -4.2708 H   0  0  0  0  0  0  0  0  0  0  0  0
   56.8080  160.0699   -4.4498 H   0  0  0  0  0  0  0  0  0  0  0  0
   52.9749  155.9391   -2.5541 H   0  0  0  0  0  0  0  0  0  0  0  0
  1  2  2  0  0  0  0
  1 13  1  0  0  0  0
  1 14  1  0  0  0  0
  2 10  1  0  0  0  0
  2 17  1  0  0  0  0
  3 11  1  0  0  0  0
  3 14  2  0  0  0  0
  3 17  1  0  0  0  0
  4  5  1  0  0  0  0
  4  6  1  0  0  0  0
  5  8  1  0  0  0  0
  6  9  1  0  0  0  0
  7  8  1  0  0  0  0
  7  9  1  0  0  0  0
  8 15  1  0  0  0  0
  9 16  1  0  0  0  0
 12 13  1  0  0  0  0
 13 15  1  0  0  0  0
  4 18  1  0  0  0  0
  4 19  1  0  0  0  0
  5 20  1  0  0  0  0
  5 21  1  0  0  0  0
  6 22  1  0  0  0  0
  6 23  1  0  0  0  0
  7 24  1  0  0  0  0
  7 25  1  0  0  0  0
  8 26  1  0  0  0  0
  9 27  1  0  0  0  0
 10 28  1  0  0  0  0
 10 29  1  0  0  0  0
 10 30  1  0  0  0  0
 11 31  1  0  0  0  0
 11 32  1  0  0  0  0
 11 33  1  0  0  0  0
 12 34  1  0  0  0  0
 12 35  1  0  0  0  0
 12 36  1  0  0  0  0
 13 37  1  0  0  0  0
 15 38  1  0  0  0  0
 16 39  1  0  0  0  0
M  END
> <FRED Chemgauss4 score>
-6.644445

$$$$
C44509817	P128444641
  -OEChem-05122015083D

 18 17  0     0  0  0  0  0  0999 V2000
   55.1188  154.4962   -5.4313 C   0  0  0  0  0  0  0  0  0  0  0  0
   55.2039  155.6789   -4.5823 C   0  0  0  0  0  0  0  0  0  0  0  0
   53.2480  157.2368   -6.4158 C   0  0  0  0  0  0  0  0  0  0  0  0
   53.3108  158.6039   -5.7593 C   0  0  0  0  0  0  0  0  0  0  0  0
   55.0563  153.5551   -6.1074 N   0  0  0  0  0  0  0  0  0  0  0  0
   52.7322  156.2485   -5.4516 N   0  0  0  0  0  0  0  0  0  0  0  0
   53.0769  154.8064   -3.3313 O   0  0  0  0  0  0  0  0  0  0  0  0
   53.6095  157.2698   -3.2662 O   0  0  0  0  0  0  0  0  0  0  0  0
   52.0018  159.0025   -5.3725 O   0  0  0  0  0  0  0  0  0  0  0  0
   53.5635  156.0082   -3.9800 S   0  0  0  0  0  0  0  0  0  0  0  0
   55.5388  156.5600   -5.1340 H   0  0  0  0  0  0  0  0  0  0  0  0
   55.8502  155.5200   -3.7163 H   0  0  0  0  0  0  0  0  0  0  0  0
   52.5848  157.2449   -7.2867 H   0  0  0  0  0  0  0  0  0  0  0  0
   54.2469  156.9186   -6.7292 H   0  0  0  0  0  0  0  0  0  0  0  0
   53.6931  159.3435   -6.4696 H   0  0  0  0  0  0  0  0  0  0  0  0
   53.9528  158.5954   -4.8725 H   0  0  0  0  0  0  0  0  0  0  0  0
   52.3124  155.4182   -5.8895 H   0  0  0  0  0  0  0  0  0  0  0  0
   52.0866  159.8767   -4.9593 H   0  0  0  0  0  0  0  0  0  0  0  0
  1  2  1  0  0  0  0
  1  5  3  0  0  0  0
  2 10  1  0  0  0  0
  3  4  1  0  0  0  0
  3  6  1  0  0  0  0
  4  9  1  0  0  0  0
  6 10  1  0  0  0  0
  7 10  2  0  0  0  0
  8 10  2  0  0  0  0
  2 11  1  0  0  0  0
  2 12  1  0  0  0  0
  3 13  1  0  0  0  0
  3 14  1  0  0  0  0
  4 15  1  0  0  0  0
  4 16  1  0  0  0  0
  6 17  1  0  0  0  0
  9 18  1  0  0  0  0
M  END
> <FRED Chemgauss4 score>
-6.644069

$$$$
C83270613	P130167392
  -OEChem-05122015083D

 24 24  0     1  0  0  0  0  0999 V2000
   57.4320  155.5174   -6.2977 C   0  0  0  0  0  0  0  0  0  0  0  0
   56.2578  156.1973   -5.9884 C   0  0  0  0  0  0  0  0  0  0  0  0
   56.1789  153.4868   -6.4665 C   0  0  0  0  0  0  0  0  0  0  0  0
   57.3969  154.1476   -6.5400 C   0  0  0  0  0  0  0  0  0  0  0  0
   55.0686  155.4847   -5.9290 C   0  0  0  0  0  0  0  0  0  0  0  0
   53.0628  155.5719   -4.3513 C   0  0  0  0  0  0  0  0  0  0  0  0
   53.9157  155.6810   -3.0916 C   0  0  0  0  0  0  0  0  0  0  0  0
   53.7482  156.1492   -5.6001 C   0  0  2  0  0  0  0  0  0  0  0  0
   55.0633  154.1660   -6.1667 N   0  3  0  0  0  0  0  0  0  0  0  0
   52.8562  156.0834   -6.7379 N   0  0  0  0  0  0  0  0  0  0  0  0
   58.4673  153.5067   -6.8258 O   0  5  0  0  0  0  0  0  0  0  0  0
   53.2021  155.1033   -2.0058 O   0  0  0  0  0  0  0  0  0  0  0  0
   58.3633  156.0797   -6.3428 H   0  0  0  0  0  0  0  0  0  0  0  0
   56.2798  157.2658   -5.7988 H   0  0  0  0  0  0  0  0  0  0  0  0
   56.0360  152.4266   -6.6338 H   0  0  0  0  0  0  0  0  0  0  0  0
   52.1158  156.1014   -4.1774 H   0  0  0  0  0  0  0  0  0  0  0  0
   52.7716  154.5243   -4.5047 H   0  0  0  0  0  0  0  0  0  0  0  0
   54.8624  155.1439   -3.2017 H   0  0  0  0  0  0  0  0  0  0  0  0
   54.1241  156.7284   -2.8515 H   0  0  0  0  0  0  0  0  0  0  0  0
   53.9117  157.2213   -5.4324 H   0  0  0  0  0  0  0  0  0  0  0  0
   54.1806  153.6572   -6.1203 H   0  0  0  0  0  0  0  0  0  0  0  0
   53.2460  156.1434   -7.6602 H   0  0  0  0  0  0  0  0  0  0  0  0
   51.8700  156.1848   -6.5837 H   0  0  0  0  0  0  0  0  0  0  0  0
   53.7688  155.1880   -1.2223 H   0  0  0  0  0  0  0  0  0  0  0  0
  1  2  1  0  0  0  0
  1  4  2  0  0  0  0
  2  5  2  0  0  0  0
  3  4  1  0  0  0  0
  3  9  2  0  0  0  0
  4 11  1  0  0  0  0
  5  8  1  0  0  0  0
  5  9  1  0  0  0  0
  6  7  1  0  0  0  0
  6  8  1  0  0  0  0
  7 12  1  0  0  0  0
  8 10  1  0  0  0  0
  1 13  1  0  0  0  0
  2 14  1  0  0  0  0
  3 15  1  0  0  0  0
  6 16  1  0  0  0  0
  6 17  1  0  0  0  0
  7 18  1  0  0  0  0
  7 19  1  0  0  0  0
  8 20  1  0  0  0  0
  9 21  1  0  0  0  0
 10 22  1  0  0  0  0
 10 23  1  0  0  0  0
 12 24  1  0  0  0  0
M  CHG  2   9   1  11  -1
M  END
> <FRED Chemgauss4 score>
-6.642081

$$$$
C94090296	P147458364
  -OEChem-05122015083D

 43 45  0     1  0  0  0  0  0999 V2000
   55.9411  160.6769   -3.2073 C   0  0  0  0  0  0  0  0  0  0  0  0
   54.9814  159.7010   -3.4845 C   0  0  0  0  0  0  0  0  0  0  0  0
   55.7776  158.3284   -1.6398 C   0  0  0  0  0  0  0  0  0  0  0  0
   56.8033  160.4681   -2.1428 C   0  0  0  0  0  0  0  0  0  0  0  0
   56.7181  159.3066   -1.3643 C   0  0  0  0  0  0  0  0  0  0  0  0
   54.9009  158.5349   -2.7069 C   0  0  0  0  0  0  0  0  0  0  0  0
   57.7746  159.2951   -0.3050 C   0  0  0  0  0  0  0  0  0  0  0  0
   58.1655  160.7821   -0.2595 C   0  0  0  0  0  0  0  0  0  0  0  0
   60.9228  162.0550   -7.0472 C   0  0  0  0  0  0  0  0  0  0  0  0
   60.4330  160.6944   -7.5301 C   0  0  0  0  0  0  0  0  0  0  0  0
   60.0343  162.5756   -5.9213 C   0  0  0  0  0  0  0  0  0  0  0  0
   60.2465  159.7414   -6.3571 C   0  0  0  0  0  0  0  0  0  0  0  0
   57.9217  161.3489   -1.6719 C   0  0  1  0  0  0  0  0  0  0  0  0
   59.8763  161.5185   -4.8259 C   0  0  1  0  0  0  0  0  0  0  0  0
   60.2783  161.6978   -1.8043 C   0  0  0  0  0  0  0  0  0  0  0  0
   58.9017  161.9834   -3.7527 C   0  0  0  0  0  0  0  0  0  0  0  0
   53.9258  157.5597   -3.0108 N   0  0  0  0  0  0  0  0  0  0  0  0
   59.0851  161.2307   -2.5111 N   0  0  2  0  0  0  0  0  0  0  0  0
   59.3664  160.3023   -5.3833 O   0  0  0  0  0  0  0  0  0  0  0  0
   56.0065  161.5729   -3.8153 H   0  0  0  0  0  0  0  0  0  0  0  0
   54.2970  159.8524   -4.3161 H   0  0  0  0  0  0  0  0  0  0  0  0
   55.7277  157.4257   -1.0388 H   0  0  0  0  0  0  0  0  0  0  0  0
   57.3937  158.9549    0.6620 H   0  0  0  0  0  0  0  0  0  0  0  0
   58.6180  158.6711   -0.6177 H   0  0  0  0  0  0  0  0  0  0  0  0
   57.5027  161.3008    0.4483 H   0  0  0  0  0  0  0  0  0  0  0  0
   59.1879  160.9316    0.1043 H   0  0  0  0  0  0  0  0  0  0  0  0
   61.9542  161.9641   -6.6852 H   0  0  0  0  0  0  0  0  0  0  0  0
   60.9345  162.7682   -7.8786 H   0  0  0  0  0  0  0  0  0  0  0  0
   59.4705  160.8298   -8.0386 H   0  0  0  0  0  0  0  0  0  0  0  0
   61.1353  160.2726   -8.2566 H   0  0  0  0  0  0  0  0  0  0  0  0
   60.4543  163.4996   -5.5088 H   0  0  0  0  0  0  0  0  0  0  0  0
   59.0508  162.8198   -6.3429 H   0  0  0  0  0  0  0  0  0  0  0  0
   59.8030  158.8037   -6.7065 H   0  0  0  0  0  0  0  0  0  0  0  0
   61.2054  159.4978   -5.8847 H   0  0  0  0  0  0  0  0  0  0  0  0
   57.5969  162.3956   -1.6093 H   0  0  0  0  0  0  0  0  0  0  0  0
   60.8385  161.3151   -4.3444 H   0  0  0  0  0  0  0  0  0  0  0  0
   61.1568  161.6047   -2.4480 H   0  0  0  0  0  0  0  0  0  0  0  0
   60.4394  161.1033   -0.9009 H   0  0  0  0  0  0  0  0  0  0  0  0
   60.1615  162.7463   -1.5176 H   0  0  0  0  0  0  0  0  0  0  0  0
   57.8690  161.8363   -4.0828 H   0  0  0  0  0  0  0  0  0  0  0  0
   59.0515  163.0429   -3.5252 H   0  0  0  0  0  0  0  0  0  0  0  0
   53.2749  157.7362   -3.7479 H   0  0  0  0  0  0  0  0  0  0  0  0
   53.8441  156.7551   -2.4241 H   0  0  0  0  0  0  0  0  0  0  0  0
  1  2  1  0  0  0  0
  1  4  2  0  0  0  0
  2  6  2  0  0  0  0
  3  5  2  0  0  0  0
  3  6  1  0  0  0  0
  4  5  1  0  0  0  0
  4 13  1  0  0  0  0
  5  7  1  0  0  0  0
  6 17  1  0  0  0  0
  7  8  1  0  0  0  0
  8 13  1  0  0  0  0
  9 10  1  0  0  0  0
  9 11  1  0  0  0  0
 10 12  1  0  0  0  0
 11 14  1  0  0  0  0
 12 19  1  0  0  0  0
 13 18  1  0  0  0  0
 14 16  1  0  0  0  0
 14 19  1  0  0  0  0
 15 18  1  0  0  0  0
 16 18  1  0  0  0  0
  1 20  1  0  0  0  0
  2 21  1  0  0  0  0
  3 22  1  0  0  0  0
  7 23  1  0  0  0  0
  7 24  1  0  0  0  0
  8 25  1  0  0  0  0
  8 26  1  0  0  0  0
  9 27  1  0  0  0  0
  9 28  1  0  0  0  0
 10 29  1  0  0  0  0
 10 30  1  0  0  0  0
 11 31  1  0  0  0  0
 11 32  1  0  0  0  0
 12 33  1  0  0  0  0
 12 34  1  0  0  0  0
 13 35  1  0  0  0  0
 14 36  1  0  0  0  0
 15 37  1  0  0  0  0
 15 38  1  0  0  0  0
 15 39  1  0  0  0  0
 16 40  1  0  0  0  0
 16 41  1  0  0  0  0
 17 42  1  0  0  0  0
 17 43  1  0  0  0  0
M  END
> <FRED Chemgauss4 score>
-6.638448

$$$$
C88037217	P137697158
  -OEChem-05122015083D

 31 32  0     1  0  0  0  0  0999 V2000
   58.1114  159.2202   -2.8375 C   0  0  0  0  0  0  0  0  0  0  0  0
   58.2873  159.8669   -1.6170 C   0  0  0  0  0  0  0  0  0  0  0  0
   56.8833  158.5917   -3.0113 C   0  0  0  0  0  0  0  0  0  0  0  0
   57.2580  159.8437   -0.6818 C   0  0  0  0  0  0  0  0  0  0  0  0
   55.9004  158.6116   -2.0283 C   0  0  0  0  0  0  0  0  0  0  0  0
   55.0734  157.4921   -3.6383 C   0  0  0  0  0  0  0  0  0  0  0  0
   57.4693  160.5452    0.6218 C   0  0  0  0  0  0  0  0  0  0  0  0
   56.4919  154.0646   -6.2908 C   0  0  0  0  0  0  0  0  0  0  0  0
   55.8675  155.4177   -5.9870 C   0  0  0  0  0  0  0  0  0  0  0  0
   54.8029  155.3091   -4.8906 C   0  0  0  0  0  0  0  0  0  0  0  0
   54.1786  156.6711   -4.5457 C   0  0  1  0  0  0  0  0  0  0  0  0
   56.0572  159.2372   -0.8351 N   0  0  0  0  0  0  0  0  0  0  0  0
   54.7824  157.9253   -2.4311 N   0  0  0  0  0  0  0  0  0  0  0  0
   56.3293  157.8689   -4.0325 N   0  0  0  0  0  0  0  0  0  0  0  0
   52.8850  156.5287   -3.9191 N   0  0  0  0  0  0  0  0  0  0  0  0
   58.8818  159.2090   -3.5986 H   0  0  0  0  0  0  0  0  0  0  0  0
   59.2214  160.3802   -1.4088 H   0  0  0  0  0  0  0  0  0  0  0  0
   57.1374  161.5866    0.5488 H   0  0  0  0  0  0  0  0  0  0  0  0
   56.9120  160.0548    1.4286 H   0  0  0  0  0  0  0  0  0  0  0  0
   58.5272  160.5330    0.9094 H   0  0  0  0  0  0  0  0  0  0  0  0
   55.7304  153.3421   -6.6013 H   0  0  0  0  0  0  0  0  0  0  0  0
   57.2356  154.1459   -7.0899 H   0  0  0  0  0  0  0  0  0  0  0  0
   56.9919  153.6698   -5.4009 H   0  0  0  0  0  0  0  0  0  0  0  0
   56.6575  156.1125   -5.6806 H   0  0  0  0  0  0  0  0  0  0  0  0
   55.4183  155.8188   -6.9031 H   0  0  0  0  0  0  0  0  0  0  0  0
   54.0151  154.6229   -5.2286 H   0  0  0  0  0  0  0  0  0  0  0  0
   55.2540  154.8565   -3.9979 H   0  0  0  0  0  0  0  0  0  0  0  0
   53.9964  157.2205   -5.4778 H   0  0  0  0  0  0  0  0  0  0  0  0
   56.7687  157.6527   -4.9176 H   0  0  0  0  0  0  0  0  0  0  0  0
   52.2862  155.7759   -4.2085 H   0  0  0  0  0  0  0  0  0  0  0  0
   52.5284  157.2872   -3.3652 H   0  0  0  0  0  0  0  0  0  0  0  0
  1  2  2  0  0  0  0
  1  3  1  0  0  0  0
  2  4  1  0  0  0  0
  3  5  2  0  0  0  0
  3 14  1  0  0  0  0
  4  7  1  0  0  0  0
  4 12  2  0  0  0  0
  5 12  1  0  0  0  0
  5 13  1  0  0  0  0
  6 11  1  0  0  0  0
  6 13  2  0  0  0  0
  6 14  1  0  0  0  0
  8  9  1  0  0  0  0
  9 10  1  0  0  0  0
 10 11  1  0  0  0  0
 11 15  1  0  0  0  0
  1 16  1  0  0  0  0
  2 17  1  0  0  0  0
  7 18  1  0  0  0  0
  7 19  1  0  0  0  0
  7 20  1  0  0  0  0
  8 21  1  0  0  0  0
  8 22  1  0  0  0  0
  8 23  1  0  0  0  0
  9 24  1  0  0  0  0
  9 25  1  0  0  0  0
 10 26  1  0  0  0  0
 10 27  1  0  0  0  0
 11 28  1  0  0  0  0
 14 29  1  0  0  0  0
 15 30  1  0  0  0  0
 15 31  1  0  0  0  0
M  END
> <FRED Chemgauss4 score>
-6.638001

$$$$
C83824098	P131129758
  -OEChem-05122015083D

 22 22  0     0  0  0  0  0  0999 V2000
   54.0425  155.2340   -6.2325 C   0  0  0  0  0  0  0  0  0  0  0  0
   54.2693  156.5949   -4.6661 C   0  0  0  0  0  0  0  0  0  0  0  0
   54.7773  157.4960   -3.5997 C   0  0  0  0  0  0  0  0  0  0  0  0
   56.3342  160.3863   -3.0993 C   0  0  0  0  0  0  0  0  0  0  0  0
   56.6710  158.9199   -2.8633 C   0  0  0  0  0  0  0  0  0  0  0  0
   54.8428  160.6763   -2.9810 C   0  0  0  0  0  0  0  0  0  0  0  0
   54.9922  155.8420   -5.4623 N   0  0  0  0  0  0  0  0  0  0  0  0
   52.9505  156.4349   -4.9576 N   0  0  0  0  0  0  0  0  0  0  0  0
   52.7775  155.5634   -5.9629 N   0  0  0  0  0  0  0  0  0  0  0  0
   56.0345  158.0490   -3.8134 N   0  0  0  0  0  0  0  0  0  0  0  0
   54.0912  157.6879   -2.5992 O   0  0  0  0  0  0  0  0  0  0  0  0
   54.6242  162.0582   -3.2323 O   0  0  0  0  0  0  0  0  0  0  0  0
   54.2971  154.5290   -7.0127 H   0  0  0  0  0  0  0  0  0  0  0  0
   56.8750  161.0038   -2.3712 H   0  0  0  0  0  0  0  0  0  0  0  0
   56.6895  160.7070   -4.0868 H   0  0  0  0  0  0  0  0  0  0  0  0
   57.7497  158.7617   -2.9585 H   0  0  0  0  0  0  0  0  0  0  0  0
   56.3657  158.6022   -1.8612 H   0  0  0  0  0  0  0  0  0  0  0  0
   54.2669  160.0983   -3.7104 H   0  0  0  0  0  0  0  0  0  0  0  0
   54.4792  160.4445   -1.9748 H   0  0  0  0  0  0  0  0  0  0  0  0
   51.8632  155.3123   -6.3285 H   0  0  0  0  0  0  0  0  0  0  0  0
   56.5665  157.7896   -4.6421 H   0  0  0  0  0  0  0  0  0  0  0  0
   53.6689  162.2101   -3.1498 H   0  0  0  0  0  0  0  0  0  0  0  0
  1  7  2  0  0  0  0
  1  9  1  0  0  0  0
  2  3  1  0  0  0  0
  2  7  1  0  0  0  0
  2  8  2  0  0  0  0
  3 10  1  0  0  0  0
  3 11  2  0  0  0  0
  4  5  1  0  0  0  0
  4  6  1  0  0  0  0
  5 10  1  0  0  0  0
  6 12  1  0  0  0  0
  8  9  1  0  0  0  0
  1 13  1  0  0  0  0
  4 14  1  0  0  0  0
  4 15  1  0  0  0  0
  5 16  1  0  0  0  0
  5 17  1  0  0  0  0
  6 18  1  0  0  0  0
  6 19  1  0  0  0  0
  9 20  1  0  0  0  0
 10 21  1  0  0  0  0
 12 22  1  0  0  0  0
M  END
> <FRED Chemgauss4 score>
-6.631735

$$$$
C84472387	P153165800
  -OEChem-05122015083D

 45 46  0     1  0  0  0  0  0999 V2000
   59.4177  159.7442   -1.6901 C   0  0  0  0  0  0  0  0  0  0  0  0
   58.3821  159.5525   -0.5807 C   0  0  0  0  0  0  0  0  0  0  0  0
   58.6364  159.7674   -3.0002 C   0  0  0  0  0  0  0  0  0  0  0  0
   57.0259  159.4884   -1.2755 C   0  0  0  0  0  0  0  0  0  0  0  0
   55.9544  154.2290   -5.1509 C   0  0  0  0  0  0  0  0  0  0  0  0
   56.6856  155.9594   -6.8483 C   0  0  0  0  0  0  0  0  0  0  0  0
   57.3563  159.0009   -2.6826 C   0  0  0  0  0  0  0  0  0  0  0  0
   56.0702  154.5646   -6.6468 C   0  0  1  0  0  0  0  0  0  0  0  0
   55.1804  155.2914   -4.3475 C   0  0  1  0  0  0  0  0  0  0  0  0
   55.9253  157.0662   -6.0994 C   0  0  2  0  0  0  0  0  0  0  0  0
   55.7849  156.6865   -4.6131 C   0  0  1  0  0  0  0  0  0  0  0  0
   56.9059  153.5052   -7.3665 C   0  0  0  0  0  0  0  0  0  0  0  0
   53.6730  155.1654   -4.5949 C   0  0  0  0  0  0  0  0  0  0  0  0
   56.2417  159.2564   -3.6820 C   0  0  0  0  0  0  0  0  0  0  0  0
   54.6430  157.3152   -6.7587 N   0  0  0  0  0  0  0  0  0  0  0  0
   54.9268  157.4804   -2.2857 O   0  0  0  0  0  0  0  0  0  0  0  0
   53.8609  158.4250   -4.3698 O   0  0  0  0  0  0  0  0  0  0  0  0
   55.0272  157.9634   -3.6468 S   0  0  0  0  0  0  0  0  0  0  0  0
   59.9938  160.6653   -1.5543 H   0  0  0  0  0  0  0  0  0  0  0  0
   60.1279  158.9091   -1.6829 H   0  0  0  0  0  0  0  0  0  0  0  0
   58.5817  158.6165   -0.0464 H   0  0  0  0  0  0  0  0  0  0  0  0
   58.4163  160.3631    0.1540 H   0  0  0  0  0  0  0  0  0  0  0  0
   58.4120  160.8047   -3.2779 H   0  0  0  0  0  0  0  0  0  0  0  0
   59.2003  159.3150   -3.8219 H   0  0  0  0  0  0  0  0  0  0  0  0
   56.3301  158.8227   -0.7556 H   0  0  0  0  0  0  0  0  0  0  0  0
   56.5768  160.4889   -1.3037 H   0  0  0  0  0  0  0  0  0  0  0  0
   55.4577  153.2572   -5.0472 H   0  0  0  0  0  0  0  0  0  0  0  0
   56.9564  154.1017   -4.7238 H   0  0  0  0  0  0  0  0  0  0  0  0
   57.7363  155.9435   -6.5292 H   0  0  0  0  0  0  0  0  0  0  0  0
   56.7023  156.1827   -7.9232 H   0  0  0  0  0  0  0  0  0  0  0  0
   57.5723  157.9253   -2.6549 H   0  0  0  0  0  0  0  0  0  0  0  0
   55.0854  154.5543   -7.0827 H   0  0  0  0  0  0  0  0  0  0  0  0
   55.3413  155.0724   -3.2851 H   0  0  0  0  0  0  0  0  0  0  0  0
   56.5093  157.9810   -6.1619 H   0  0  0  0  0  0  0  0  0  0  0  0
   56.8451  156.6683   -4.1773 H   0  0  0  0  0  0  0  0  0  0  0  0
   57.9099  153.4886   -6.9499 H   0  0  0  0  0  0  0  0  0  0  0  0
   56.9592  153.7416   -8.4262 H   0  0  0  0  0  0  0  0  0  0  0  0
   56.4457  152.5289   -7.2374 H   0  0  0  0  0  0  0  0  0  0  0  0
   53.4547  155.3737   -5.6400 H   0  0  0  0  0  0  0  0  0  0  0  0
   53.1384  155.8759   -3.9681 H   0  0  0  0  0  0  0  0  0  0  0  0
   53.3454  154.1565   -4.3538 H   0  0  0  0  0  0  0  0  0  0  0  0
   56.6336  159.3029   -4.7018 H   0  0  0  0  0  0  0  0  0  0  0  0
   55.7228  160.1925   -3.4587 H   0  0  0  0  0  0  0  0  0  0  0  0
   54.6025  157.2228   -7.7491 H   0  0  0  0  0  0  0  0  0  0  0  0
   53.9255  157.7587   -6.2298 H   0  0  0  0  0  0  0  0  0  0  0  0
  1  2  1  0  0  0  0
  1  3  1  0  0  0  0
  2  4  1  0  0  0  0
  3  7  1  0  0  0  0
  4  7  1  0  0  0  0
  5  8  1  0  0  0  0
  5  9  1  0  0  0  0
  6  8  1  0  0  0  0
  6 10  1  0  0  0  0
  7 14  1  0  0  0  0
  8 12  1  0  0  0  0
  9 11  1  0  0  0  0
  9 13  1  0  0  0  0
 10 11  1  0  0  0  0
 10 15  1  0  0  0  0
 11 18  1  0  0  0  0
 14 18  1  0  0  0  0
 16 18  2  0  0  0  0
 17 18  2  0  0  0  0
  1 19  1  0  0  0  0
  1 20  1  0  0  0  0
  2 21  1  0  0  0  0
  2 22  1  0  0  0  0
  3 23  1  0  0  0  0
  3 24  1  0  0  0  0
  4 25  1  0  0  0  0
  4 26  1  0  0  0  0
  5 27  1  0  0  0  0
  5 28  1  0  0  0  0
  6 29  1  0  0  0  0
  6 30  1  0  0  0  0
  7 31  1  0  0  0  0
  8 32  1  0  0  0  0
  9 33  1  0  0  0  0
 10 34  1  0  0  0  0
 11 35  1  0  0  0  0
 12 36  1  0  0  0  0
 12 37  1  0  0  0  0
 12 38  1  0  0  0  0
 13 39  1  0  0  0  0
 13 40  1  0  0  0  0
 13 41  1  0  0  0  0
 14 42  1  0  0  0  0
 14 43  1  0  0  0  0
 15 44  1  0  0  0  0
 15 45  1  0  0  0  0
M  END
> <FRED Chemgauss4 score>
-6.631122

$$$$
C50141891	P128496873
  -OEChem-05122015083D

 23 22  0     0  0  0  0  0  0999 V2000
   54.0949  155.8457   -4.1590 C   0  0  0  0  0  0  0  0  0  0  0  0
   53.2703  155.2121   -3.3055 C   0  0  0  0  0  0  0  0  0  0  0  0
   54.3664  156.6962   -6.3801 C   0  0  0  0  0  0  0  0  0  0  0  0
   54.9935  154.3461   -5.7941 C   0  0  0  0  0  0  0  0  0  0  0  0
   53.1104  157.5319   -6.5289 C   0  0  0  0  0  0  0  0  0  0  0  0
   54.5879  153.6472   -7.0768 C   0  0  0  0  0  0  0  0  0  0  0  0
   54.0632  155.4929   -5.5402 N   0  3  0  0  0  0  0  0  0  0  0  0
   53.1052  155.3337   -2.0629 O   0  5  0  0  0  0  0  0  0  0  0  0
   52.6817  157.9788   -5.2494 O   0  0  0  0  0  0  0  0  0  0  0  0
   55.4445  152.5359   -7.3047 O   0  0  0  0  0  0  0  0  0  0  0  0
   54.7840  156.6165   -3.8299 H   0  0  0  0  0  0  0  0  0  0  0  0
   52.6390  154.4634   -3.7896 H   0  0  0  0  0  0  0  0  0  0  0  0
   55.1638  157.2389   -5.8647 H   0  0  0  0  0  0  0  0  0  0  0  0
   54.7213  156.3241   -7.3448 H   0  0  0  0  0  0  0  0  0  0  0  0
   55.9986  154.7726   -5.8573 H   0  0  0  0  0  0  0  0  0  0  0  0
   54.9157  153.6817   -4.9295 H   0  0  0  0  0  0  0  0  0  0  0  0
   53.3215  158.4141   -7.1414 H   0  0  0  0  0  0  0  0  0  0  0  0
   52.3000  156.9642   -6.9976 H   0  0  0  0  0  0  0  0  0  0  0  0
   53.5639  153.2713   -6.9874 H   0  0  0  0  0  0  0  0  0  0  0  0
   54.6414  154.3204   -7.9386 H   0  0  0  0  0  0  0  0  0  0  0  0
   53.1121  155.1795   -5.7802 H   0  0  0  0  0  0  0  0  0  0  0  0
   51.8795  158.5068   -5.3916 H   0  0  0  0  0  0  0  0  0  0  0  0
   55.1502  152.1205   -8.1313 H   0  0  0  0  0  0  0  0  0  0  0  0
  1  2  2  0  0  0  0
  1  7  1  0  0  0  0
  2  8  1  0  0  0  0
  3  5  1  0  0  0  0
  3  7  1  0  0  0  0
  4  6  1  0  0  0  0
  4  7  1  0  0  0  0
  5  9  1  0  0  0  0
  6 10  1  0  0  0  0
  1 11  1  0  0  0  0
  2 12  1  0  0  0  0
  3 13  1  0  0  0  0
  3 14  1  0  0  0  0
  4 15  1  0  0  0  0
  4 16  1  0  0  0  0
  5 17  1  0  0  0  0
  5 18  1  0  0  0  0
  6 19  1  0  0  0  0
  6 20  1  0  0  0  0
  7 21  1  0  0  0  0
  9 22  1  0  0  0  0
 10 23  1  0  0  0  0
M  CHG  2   7   1   8  -1
M  END
> <FRED Chemgauss4 score>
-6.625563

$$$$
C85835256	P134409813
  -OEChem-05122015083D

 31 31  0     1  0  0  0  0  0999 V2000
   58.1076  153.7352   -6.4296 C   0  0  0  0  0  0  0  0  0  0  0  0
   59.2382  154.5020   -6.8048 C   0  0  0  0  0  0  0  0  0  0  0  0
   57.0864  154.6169   -6.1519 C   0  0  0  0  0  0  0  0  0  0  0  0
   58.8736  155.8290   -6.7447 C   0  0  0  0  0  0  0  0  0  0  0  0
   60.7502  156.8351   -8.1079 C   0  0  0  0  0  0  0  0  0  0  0  0
   55.4404  156.8723   -5.4534 C   0  0  0  0  0  0  0  0  0  0  0  0
   55.5927  156.3265   -4.0336 C   0  0  0  0  0  0  0  0  0  0  0  0
   56.7815  157.1023   -6.1547 C   0  0  0  0  0  0  0  0  0  0  0  0
   54.2392  156.0725   -3.3837 C   0  0  0  0  0  0  0  0  0  0  0  0
   59.6645  157.0429   -7.0334 C   0  0  2  0  0  0  0  0  0  0  0  0
   57.5635  155.8868   -6.3465 N   0  0  0  0  0  0  0  0  0  0  0  0
   60.2788  157.6092   -5.8380 N   0  0  0  0  0  0  0  0  0  0  0  0
   53.5258  157.2994   -3.3141 O   0  0  0  0  0  0  0  0  0  0  0  0
   58.0436  152.6580   -6.3684 H   0  0  0  0  0  0  0  0  0  0  0  0
   60.2115  154.1252   -7.0876 H   0  0  0  0  0  0  0  0  0  0  0  0
   56.0668  154.4453   -5.8339 H   0  0  0  0  0  0  0  0  0  0  0  0
   61.4378  156.0372   -7.8068 H   0  0  0  0  0  0  0  0  0  0  0  0
   60.3160  156.5616   -9.0762 H   0  0  0  0  0  0  0  0  0  0  0  0
   61.3381  157.7464   -8.2649 H   0  0  0  0  0  0  0  0  0  0  0  0
   54.8172  156.1893   -6.0435 H   0  0  0  0  0  0  0  0  0  0  0  0
   54.9085  157.8309   -5.4115 H   0  0  0  0  0  0  0  0  0  0  0  0
   56.1657  157.0289   -3.4155 H   0  0  0  0  0  0  0  0  0  0  0  0
   56.1653  155.3915   -4.0376 H   0  0  0  0  0  0  0  0  0  0  0  0
   57.3925  157.8237   -5.5996 H   0  0  0  0  0  0  0  0  0  0  0  0
   56.6130  157.5298   -7.1509 H   0  0  0  0  0  0  0  0  0  0  0  0
   54.3607  155.6822   -2.3682 H   0  0  0  0  0  0  0  0  0  0  0  0
   53.6506  155.3609   -3.9713 H   0  0  0  0  0  0  0  0  0  0  0  0
   59.0137  157.8593   -7.4084 H   0  0  0  0  0  0  0  0  0  0  0  0
   59.7650  157.5752   -4.9833 H   0  0  0  0  0  0  0  0  0  0  0  0
   61.0865  158.1842   -5.9510 H   0  0  0  0  0  0  0  0  0  0  0  0
   52.6713  157.1037   -2.8967 H   0  0  0  0  0  0  0  0  0  0  0  0
  1  2  1  0  0  0  0
  1  3  2  0  0  0  0
  2  4  2  0  0  0  0
  3 11  1  0  0  0  0
  4 10  1  0  0  0  0
  4 11  1  0  0  0  0
  5 10  1  0  0  0  0
  6  7  1  0  0  0  0
  6  8  1  0  0  0  0
  7  9  1  0  0  0  0
  8 11  1  0  0  0  0
  9 13  1  0  0  0  0
 10 12  1  0  0  0  0
  1 14  1  0  0  0  0
  2 15  1  0  0  0  0
  3 16  1  0  0  0  0
  5 17  1  0  0  0  0
  5 18  1  0  0  0  0
  5 19  1  0  0  0  0
  6 20  1  0  0  0  0
  6 21  1  0  0  0  0
  7 22  1  0  0  0  0
  7 23  1  0  0  0  0
  8 24  1  0  0  0  0
  8 25  1  0  0  0  0
  9 26  1  0  0  0  0
  9 27  1  0  0  0  0
 10 28  1  0  0  0  0
 12 29  1  0  0  0  0
 12 30  1  0  0  0  0
 13 31  1  0  0  0  0
M  END
> <FRED Chemgauss4 score>
-6.623322

$$$$
C82870303	P129537025
  -OEChem-05122015083D

 23 24  0     1  0  0  0  0  0999 V2000
   57.7557  158.8340   -5.8607 C   0  0  0  0  0  0  0  0  0  0  0  0
   58.9549  158.4969   -6.4781 C   0  0  0  0  0  0  0  0  0  0  0  0
   58.6914  156.1919   -6.1958 C   0  0  0  0  0  0  0  0  0  0  0  0
   57.4676  156.4231   -5.5587 C   0  0  0  0  0  0  0  0  0  0  0  0
   56.9990  157.7538   -5.3915 C   0  0  0  0  0  0  0  0  0  0  0  0
   55.5465  156.3732   -4.5330 C   0  0  0  0  0  0  0  0  0  0  0  0
   53.4687  154.9790   -4.7711 C   0  0  0  0  0  0  0  0  0  0  0  0
   54.3511  155.8665   -3.8648 C   0  0  2  0  0  0  0  0  0  0  0  0
   56.5379  155.5987   -5.0131 N   0  5  0  0  0  0  0  0  0  0  0  0
   59.4297  157.2348   -6.6530 N   0  0  0  0  0  0  0  0  0  0  0  0
   55.8039  157.6768   -4.7509 N   0  0  0  0  0  0  0  0  0  0  0  0
   52.5982  155.8112   -5.6421 N   0  3  0  0  0  0  0  0  0  0  0  0
   53.5357  156.9725   -3.4195 O   0  0  0  0  0  0  0  0  0  0  0  0
   57.4222  159.8574   -5.7469 H   0  0  0  0  0  0  0  0  0  0  0  0
   59.6013  159.2773   -6.8699 H   0  0  0  0  0  0  0  0  0  0  0  0
   59.0903  155.1968   -6.3466 H   0  0  0  0  0  0  0  0  0  0  0  0
   52.8013  154.3451   -4.1792 H   0  0  0  0  0  0  0  0  0  0  0  0
   54.0672  154.3602   -5.4471 H   0  0  0  0  0  0  0  0  0  0  0  0
   54.5791  155.2822   -2.9411 H   0  0  0  0  0  0  0  0  0  0  0  0
   51.9479  156.3693   -5.0805 H   0  0  0  0  0  0  0  0  0  0  0  0
   52.0479  155.2224   -6.2751 H   0  0  0  0  0  0  0  0  0  0  0  0
   53.1592  156.4528   -6.2111 H   0  0  0  0  0  0  0  0  0  0  0  0
   53.3096  157.4632   -4.2184 H   0  0  0  0  0  0  0  0  0  0  0  0
  1  2  1  0  0  0  0
  1  5  2  0  0  0  0
  2 10  2  0  0  0  0
  3  4  2  0  0  0  0
  3 10  1  0  0  0  0
  4  5  1  0  0  0  0
  4  9  1  0  0  0  0
  5 11  1  0  0  0  0
  6  8  1  0  0  0  0
  6  9  1  0  0  0  0
  6 11  2  0  0  0  0
  7  8  1  0  0  0  0
  7 12  1  0  0  0  0
  8 13  1  0  0  0  0
  1 14  1  0  0  0  0
  2 15  1  0  0  0  0
  3 16  1  0  0  0  0
  7 17  1  0  0  0  0
  7 18  1  0  0  0  0
  8 19  1  0  0  0  0
 12 20  1  0  0  0  0
 12 21  1  0  0  0  0
 12 22  1  0  0  0  0
 13 23  1  0  0  0  0
M  CHG  2   9  -1  12   1
M  END
> <FRED Chemgauss4 score>
-6.622769

$$$$
C82583446	P129059853
  -OEChem-05122015083D

 29 30  0     1  0  0  0  0  0999 V2000
   59.4500  156.8437   -7.0633 C   0  0  0  0  0  0  0  0  0  0  0  0
   58.6133  157.3156   -6.0516 C   0  0  0  0  0  0  0  0  0  0  0  0
   59.1421  155.6378   -7.6852 C   0  0  0  0  0  0  0  0  0  0  0  0
   57.5000  156.5316   -5.7230 C   0  0  0  0  0  0  0  0  0  0  0  0
   57.3118  155.3489   -6.4247 C   0  0  0  0  0  0  0  0  0  0  0  0
   55.7240  155.6542   -4.9305 C   0  0  0  0  0  0  0  0  0  0  0  0
   54.1884  157.4134   -2.5403 C   0  0  0  0  0  0  0  0  0  0  0  0
   55.5613  153.5591   -6.3111 C   0  0  0  0  0  0  0  0  0  0  0  0
   54.5007  155.3767   -4.1493 C   0  0  1  0  0  0  0  0  0  0  0  0
   54.5622  155.9401   -2.6904 C   0  0  2  0  0  0  0  0  0  0  0  0
   58.0797  154.8444   -7.4046 N   0  0  0  0  0  0  0  0  0  0  0  0
   56.5019  156.7074   -4.7956 N   0  0  0  0  0  0  0  0  0  0  0  0
   56.1728  154.8028   -5.9042 N   0  0  0  0  0  0  0  0  0  0  0  0
   53.2819  155.8884   -4.8222 N   0  0  0  0  0  0  0  0  0  0  0  0
   53.6498  155.1877   -1.8832 O   0  0  0  0  0  0  0  0  0  0  0  0
   60.3270  157.4091   -7.3598 H   0  0  0  0  0  0  0  0  0  0  0  0
   58.8213  158.2508   -5.5441 H   0  0  0  0  0  0  0  0  0  0  0  0
   59.7858  155.2599   -8.4749 H   0  0  0  0  0  0  0  0  0  0  0  0
   53.1964  157.6267   -2.9481 H   0  0  0  0  0  0  0  0  0  0  0  0
   54.9210  158.0564   -3.0404 H   0  0  0  0  0  0  0  0  0  0  0  0
   54.1900  157.7001   -1.4826 H   0  0  0  0  0  0  0  0  0  0  0  0
   55.9859  152.7586   -5.6996 H   0  0  0  0  0  0  0  0  0  0  0  0
   54.4794  153.6199   -6.1637 H   0  0  0  0  0  0  0  0  0  0  0  0
   55.7691  153.3837   -7.3703 H   0  0  0  0  0  0  0  0  0  0  0  0
   54.3491  154.2786   -4.0509 H   0  0  0  0  0  0  0  0  0  0  0  0
   55.5613  155.7899   -2.2656 H   0  0  0  0  0  0  0  0  0  0  0  0
   52.4989  156.0689   -4.2501 H   0  0  0  0  0  0  0  0  0  0  0  0
   53.2557  155.8248   -5.8062 H   0  0  0  0  0  0  0  0  0  0  0  0
   53.7691  155.5033   -0.9760 H   0  0  0  0  0  0  0  0  0  0  0  0
  1  2  2  0  0  0  0
  1  3  1  0  0  0  0
  2  4  1  0  0  0  0
  3 11  2  0  0  0  0
  4  5  2  0  0  0  0
  4 12  1  0  0  0  0
  5 11  1  0  0  0  0
  5 13  1  0  0  0  0
  6  9  1  0  0  0  0
  6 12  2  0  0  0  0
  6 13  1  0  0  0  0
  7 10  1  0  0  0  0
  8 13  1  0  0  0  0
  9 10  1  0  0  0  0
  9 14  1  0  0  0  0
 10 15  1  0  0  0  0
  1 16  1  0  0  0  0
  2 17  1  0  0  0  0
  3 18  1  0  0  0  0
  7 19  1  0  0  0  0
  7 20  1  0  0  0  0
  7 21  1  0  0  0  0
  8 22  1  0  0  0  0
  8 23  1  0  0  0  0
  8 24  1  0  0  0  0
  9 25  1  0  0  0  0
 10 26  1  0  0  0  0
 14 27  1  0  0  0  0
 14 28  1  0  0  0  0
 15 29  1  0  0  0  0
M  END
> <FRED Chemgauss4 score>
-6.618908

$$$$
C42040413	P63623377
  -OEChem-05122015083D

 26 26  0     1  0  0  0  0  0999 V2000
   54.1593  155.0490   -4.7420 C   0  0  0  0  0  0  0  0  0  0  0  0
   53.6717  156.6322   -3.3397 C   0  0  0  0  0  0  0  0  0  0  0  0
   55.8051  152.3364   -7.8635 C   0  0  0  0  0  0  0  0  0  0  0  0
   56.7167  155.6898   -6.0549 C   0  0  0  0  0  0  0  0  0  0  0  0
   56.6532  153.4616   -7.2840 C   0  0  0  0  0  0  0  0  0  0  0  0
   54.9797  153.9858   -5.4047 C   0  0  1  0  0  0  0  0  0  0  0  0
   55.8250  154.5500   -6.5651 C   0  0  1  0  0  0  0  0  0  0  0  0
   52.9477  155.3706   -5.0878 N   0  0  0  0  0  0  0  0  0  0  0  0
   54.6650  155.7529   -3.7088 N   0  0  0  0  0  0  0  0  0  0  0  0
   52.6126  156.3694   -4.2186 N   0  0  0  0  0  0  0  0  0  0  0  0
   55.7533  153.3614   -4.3672 N   0  0  0  0  0  0  0  0  0  0  0  0
   53.7008  157.4619   -2.4437 O   0  0  0  0  0  0  0  0  0  0  0  0
   55.2249  151.8581   -7.0678 H   0  0  0  0  0  0  0  0  0  0  0  0
   55.0957  152.7085   -8.6080 H   0  0  0  0  0  0  0  0  0  0  0  0
   56.4325  151.5712   -8.3309 H   0  0  0  0  0  0  0  0  0  0  0  0
   57.4357  155.3208   -5.3154 H   0  0  0  0  0  0  0  0  0  0  0  0
   57.2962  156.1359   -6.8688 H   0  0  0  0  0  0  0  0  0  0  0  0
   56.1241  156.4822   -5.5858 H   0  0  0  0  0  0  0  0  0  0  0  0
   57.2156  153.9118   -8.1099 H   0  0  0  0  0  0  0  0  0  0  0  0
   57.3904  153.0273   -6.5980 H   0  0  0  0  0  0  0  0  0  0  0  0
   54.2769  153.2335   -5.7804 H   0  0  0  0  0  0  0  0  0  0  0  0
   55.1306  154.9830   -7.2988 H   0  0  0  0  0  0  0  0  0  0  0  0
   55.5828  155.6552   -3.2918 H   0  0  0  0  0  0  0  0  0  0  0  0
   51.7233  156.8524   -4.2104 H   0  0  0  0  0  0  0  0  0  0  0  0
   56.5559  152.8053   -4.6182 H   0  0  0  0  0  0  0  0  0  0  0  0
   55.3771  153.3145   -3.4329 H   0  0  0  0  0  0  0  0  0  0  0  0
  1  6  1  0  0  0  0
  1  8  2  0  0  0  0
  1  9  1  0  0  0  0
  2  9  1  0  0  0  0
  2 10  1  0  0  0  0
  2 12  2  0  0  0  0
  3  5  1  0  0  0  0
  4  7  1  0  0  0  0
  5  7  1  0  0  0  0
  6  7  1  0  0  0  0
  6 11  1  0  0  0  0
  8 10  1  0  0  0  0
  3 13  1  0  0  0  0
  3 14  1  0  0  0  0
  3 15  1  0  0  0  0
  4 16  1  0  0  0  0
  4 17  1  0  0  0  0
  4 18  1  0  0  0  0
  5 19  1  0  0  0  0
  5 20  1  0  0  0  0
  6 21  1  0  0  0  0
  7 22  1  0  0  0  0
  9 23  1  0  0  0  0
 10 24  1  0  0  0  0
 11 25  1  0  0  0  0
 11 26  1  0  0  0  0
M  END
> <FRED Chemgauss4 score>
-6.618124

$$$$
C87618088	P137068422
  -OEChem-05122015083D

 30 31  0     1  0  0  0  0  0999 V2000
   55.3830  155.3938   -6.5890 C   0  0  0  0  0  0  0  0  0  0  0  0
   55.7469  156.6039   -6.0089 C   0  0  0  0  0  0  0  0  0  0  0  0
   59.5268  160.1478   -3.7127 C   0  0  0  0  0  0  0  0  0  0  0  0
   55.1328  154.3209   -5.7486 C   0  0  0  0  0  0  0  0  0  0  0  0
   55.5767  155.5714   -3.8732 C   0  0  0  0  0  0  0  0  0  0  0  0
   59.8414  161.0564   -2.7263 C   0  0  0  0  0  0  0  0  0  0  0  0
   57.6685  159.9750   -2.3273 C   0  0  0  0  0  0  0  0  0  0  0  0
   55.8480  156.7028   -4.6257 C   0  0  0  0  0  0  0  0  0  0  0  0
   58.2680  159.5215   -3.4818 C   0  0  0  0  0  0  0  0  0  0  0  0
   55.1930  159.1160   -4.2181 C   0  0  0  0  0  0  0  0  0  0  0  0
   56.2441  158.0156   -3.9589 C   0  0  2  0  0  0  0  0  0  0  0  0
   57.6621  158.4781   -4.3994 C   0  0  1  0  0  0  0  0  0  0  0  0
   55.2206  154.3788   -4.4009 N   0  0  0  0  0  0  0  0  0  0  0  0
   53.8862  158.7517   -3.7345 N   0  0  0  0  0  0  0  0  0  0  0  0
   57.6123  159.0521   -5.7075 O   0  0  0  0  0  0  0  0  0  0  0  0
   58.6220  161.1515   -1.5278 S   0  0  0  0  0  0  0  0  0  0  0  0
   55.2978  155.2935   -7.6650 H   0  0  0  0  0  0  0  0  0  0  0  0
   55.9495  157.4636   -6.6417 H   0  0  0  0  0  0  0  0  0  0  0  0
   60.1722  159.9450   -4.5580 H   0  0  0  0  0  0  0  0  0  0  0  0
   54.8460  153.3554   -6.1521 H   0  0  0  0  0  0  0  0  0  0  0  0
   55.6391  155.5882   -2.7895 H   0  0  0  0  0  0  0  0  0  0  0  0
   60.7291  161.6684   -2.6516 H   0  0  0  0  0  0  0  0  0  0  0  0
   56.7172  159.6738   -1.9111 H   0  0  0  0  0  0  0  0  0  0  0  0
   55.4659  160.0646   -3.7442 H   0  0  0  0  0  0  0  0  0  0  0  0
   55.0750  159.2999   -5.2903 H   0  0  0  0  0  0  0  0  0  0  0  0
   56.2599  157.8613   -2.8700 H   0  0  0  0  0  0  0  0  0  0  0  0
   58.3385  157.6161   -4.4623 H   0  0  0  0  0  0  0  0  0  0  0  0
   53.0732  159.1495   -4.1749 H   0  0  0  0  0  0  0  0  0  0  0  0
   53.8068  158.2768   -2.8505 H   0  0  0  0  0  0  0  0  0  0  0  0
   58.5268  159.2625   -5.9472 H   0  0  0  0  0  0  0  0  0  0  0  0
  1  2  1  0  0  0  0
  1  4  2  0  0  0  0
  2  8  2  0  0  0  0
  3  6  2  0  0  0  0
  3  9  1  0  0  0  0
  4 13  1  0  0  0  0
  5  8  1  0  0  0  0
  5 13  2  0  0  0  0
  6 16  1  0  0  0  0
  7  9  2  0  0  0  0
  7 16  1  0  0  0  0
  8 11  1  0  0  0  0
  9 12  1  0  0  0  0
 10 11  1  0  0  0  0
 10 14  1  0  0  0  0
 11 12  1  0  0  0  0
 12 15  1  0  0  0  0
  1 17  1  0  0  0  0
  2 18  1  0  0  0  0
  3 19  1  0  0  0  0
  4 20  1  0  0  0  0
  5 21  1  0  0  0  0
  6 22  1  0  0  0  0
  7 23  1  0  0  0  0
 10 24  1  0  0  0  0
 10 25  1  0  0  0  0
 11 26  1  0  0  0  0
 12 27  1  0  0  0  0
 14 28  1  0  0  0  0
 14 29  1  0  0  0  0
 15 30  1  0  0  0  0
M  END
> <FRED Chemgauss4 score>
-6.617850

$$$$
C88023787	P137677865
  -OEChem-05122015083D

 34 35  0     1  0  0  0  0  0999 V2000
   58.5442  157.4835   -5.5842 C   0  0  0  0  0  0  0  0  0  0  0  0
   57.6166  158.4056   -5.3201 C   0  0  0  0  0  0  0  0  0  0  0  0
   58.1938  156.1427   -6.0085 C   0  0  0  0  0  0  0  0  0  0  0  0
   56.8912  155.8392   -6.2130 C   0  0  0  0  0  0  0  0  0  0  0  0
   56.1784  158.0732   -5.4687 C   0  0  0  0  0  0  0  0  0  0  0  0
   56.4794  154.4881   -6.7619 C   0  0  0  0  0  0  0  0  0  0  0  0
   57.6302  153.6974   -7.3825 C   0  0  0  0  0  0  0  0  0  0  0  0
   58.8406  153.7205   -6.4652 C   0  0  0  0  0  0  0  0  0  0  0  0
   59.3332  155.1611   -6.2441 C   0  0  2  0  0  0  0  0  0  0  0  0
   53.9612  155.5248   -4.9892 C   0  0  0  0  0  0  0  0  0  0  0  0
   54.4796  156.4210   -6.1061 C   0  0  0  0  0  0  0  0  0  0  0  0
   54.0431  156.1832   -3.6174 C   0  0  0  0  0  0  0  0  0  0  0  0
   55.8862  156.7800   -5.9291 N   0  0  0  0  0  0  0  0  0  0  0  0
   60.3073  155.1129   -5.1448 N   0  0  0  0  0  0  0  0  0  0  0  0
   55.3488  158.9402   -5.1949 O   0  0  0  0  0  0  0  0  0  0  0  0
   53.2473  157.3610   -3.6271 O   0  0  0  0  0  0  0  0  0  0  0  0
   59.5959  157.7386   -5.4816 H   0  0  0  0  0  0  0  0  0  0  0  0
   57.8846  159.4060   -4.9994 H   0  0  0  0  0  0  0  0  0  0  0  0
   56.0461  153.8663   -5.9758 H   0  0  0  0  0  0  0  0  0  0  0  0
   55.7131  154.6460   -7.5260 H   0  0  0  0  0  0  0  0  0  0  0  0
   57.3146  152.6644   -7.5613 H   0  0  0  0  0  0  0  0  0  0  0  0
   57.8864  154.1251   -8.3563 H   0  0  0  0  0  0  0  0  0  0  0  0
   58.6029  153.2374   -5.5124 H   0  0  0  0  0  0  0  0  0  0  0  0
   59.6469  153.1325   -6.9184 H   0  0  0  0  0  0  0  0  0  0  0  0
   59.8827  155.4381   -7.1627 H   0  0  0  0  0  0  0  0  0  0  0  0
   52.9166  155.2587   -5.1938 H   0  0  0  0  0  0  0  0  0  0  0  0
   54.5138  154.5769   -4.9709 H   0  0  0  0  0  0  0  0  0  0  0  0
   54.4006  155.9062   -7.0687 H   0  0  0  0  0  0  0  0  0  0  0  0
   53.9023  157.3491   -6.1661 H   0  0  0  0  0  0  0  0  0  0  0  0
   53.6647  155.5184   -2.8347 H   0  0  0  0  0  0  0  0  0  0  0  0
   55.0745  156.4630   -3.3802 H   0  0  0  0  0  0  0  0  0  0  0  0
   60.5400  155.9687   -4.6996 H   0  0  0  0  0  0  0  0  0  0  0  0
   60.8334  154.2787   -5.0338 H   0  0  0  0  0  0  0  0  0  0  0  0
   53.3202  157.7554   -2.7430 H   0  0  0  0  0  0  0  0  0  0  0  0
  1  2  2  0  0  0  0
  1  3  1  0  0  0  0
  2  5  1  0  0  0  0
  3  4  2  0  0  0  0
  3  9  1  0  0  0  0
  4  6  1  0  0  0  0
  4 13  1  0  0  0  0
  5 13  1  0  0  0  0
  5 15  2  0  0  0  0
  6  7  1  0  0  0  0
  7  8  1  0  0  0  0
  8  9  1  0  0  0  0
  9 14  1  0  0  0  0
 10 11  1  0  0  0  0
 10 12  1  0  0  0  0
 11 13  1  0  0  0  0
 12 16  1  0  0  0  0
  1 17  1  0  0  0  0
  2 18  1  0  0  0  0
  6 19  1  0  0  0  0
  6 20  1  0  0  0  0
  7 21  1  0  0  0  0
  7 22  1  0  0  0  0
  8 23  1  0  0  0  0
  8 24  1  0  0  0  0
  9 25  1  0  0  0  0
 10 26  1  0  0  0  0
 10 27  1  0  0  0  0
 11 28  1  0  0  0  0
 11 29  1  0  0  0  0
 12 30  1  0  0  0  0
 12 31  1  0  0  0  0
 14 32  1  0  0  0  0
 14 33  1  0  0  0  0
 16 34  1  0  0  0  0
M  END
> <FRED Chemgauss4 score>
-6.616419

$$$$
C62314433	P95618880
  -OEChem-05122015083D

 23 23  0     1  0  0  0  0  0999 V2000
   55.7531  153.7287   -6.5429 C   0  0  0  0  0  0  0  0  0  0  0  0
   57.0406  154.1652   -6.7301 C   0  0  0  0  0  0  0  0  0  0  0  0
   58.1463  153.5071   -7.4380 C   0  0  0  0  0  0  0  0  0  0  0  0
   53.7983  154.8081   -5.3431 C   0  0  0  0  0  0  0  0  0  0  0  0
   53.9499  156.4497   -3.4400 C   0  0  0  0  0  0  0  0  0  0  0  0
   53.4289  156.2098   -4.8537 C   0  0  2  0  0  0  0  0  0  0  0  0
   57.2017  155.3877   -6.1395 N   0  0  0  0  0  0  0  0  0  0  0  0
   56.0438  155.7287   -5.5844 N   0  0  0  0  0  0  0  0  0  0  0  0
   55.1767  154.7325   -5.8273 N   0  0  0  0  0  0  0  0  0  0  0  0
   59.0267  154.4845   -7.9988 O   0  0  0  0  0  0  0  0  0  0  0  0
   53.3489  155.5046   -2.5615 O   0  0  0  0  0  0  0  0  0  0  0  0
   52.0046  156.3228   -4.8354 O   0  0  0  0  0  0  0  0  0  0  0  0
   55.2218  152.8363   -6.8424 H   0  0  0  0  0  0  0  0  0  0  0  0
   58.7476  152.8571   -6.7734 H   0  0  0  0  0  0  0  0  0  0  0  0
   57.7906  152.8610   -8.2636 H   0  0  0  0  0  0  0  0  0  0  0  0
   53.1549  154.4952   -6.1743 H   0  0  0  0  0  0  0  0  0  0  0  0
   53.6923  154.0667   -4.5420 H   0  0  0  0  0  0  0  0  0  0  0  0
   53.6873  157.4522   -3.0864 H   0  0  0  0  0  0  0  0  0  0  0  0
   55.0350  156.3162   -3.3911 H   0  0  0  0  0  0  0  0  0  0  0  0
   53.8074  156.9817   -5.5340 H   0  0  0  0  0  0  0  0  0  0  0  0
   59.7286  153.9914   -8.4482 H   0  0  0  0  0  0  0  0  0  0  0  0
   53.7011  155.6854   -1.6757 H   0  0  0  0  0  0  0  0  0  0  0  0
   51.7078  156.1756   -5.7457 H   0  0  0  0  0  0  0  0  0  0  0  0
  1  2  2  0  0  0  0
  1  9  1  0  0  0  0
  2  3  1  0  0  0  0
  2  7  1  0  0  0  0
  3 10  1  0  0  0  0
  4  6  1  0  0  0  0
  4  9  1  0  0  0  0
  5  6  1  0  0  0  0
  5 11  1  0  0  0  0
  6 12  1  0  0  0  0
  7  8  2  0  0  0  0
  8  9  1  0  0  0  0
  1 13  1  0  0  0  0
  3 14  1  0  0  0  0
  3 15  1  0  0  0  0
  4 16  1  0  0  0  0
  4 17  1  0  0  0  0
  5 18  1  0  0  0  0
  5 19  1  0  0  0  0
  6 20  1  0  0  0  0
 10 21  1  0  0  0  0
 11 22  1  0  0  0  0
 12 23  1  0  0  0  0
M  END
> <FRED Chemgauss4 score>
-6.612121

$$$$
C63180763	P97025531
  -OEChem-05122015083D

 35 36  0     1  0  0  0  0  0999 V2000
   61.2944  162.3296   -6.9803 C   0  0  0  0  0  0  0  0  0  0  0  0
   61.9623  163.2293   -6.1762 C   0  0  0  0  0  0  0  0  0  0  0  0
   60.3200  161.8545   -5.0738 C   0  0  0  0  0  0  0  0  0  0  0  0
   56.5139  158.9163   -4.1295 C   0  0  0  0  0  0  0  0  0  0  0  0
   58.7083  161.0144   -1.8066 C   0  0  0  0  0  0  0  0  0  0  0  0
   57.7878  159.8786   -2.2362 C   0  0  0  0  0  0  0  0  0  0  0  0
   59.9138  161.1442   -2.7363 C   0  0  0  0  0  0  0  0  0  0  0  0
   58.5707  160.1965   -4.6147 C   0  0  0  0  0  0  0  0  0  0  0  0
   57.3586  160.0719   -3.6888 C   0  0  1  0  0  0  0  0  0  0  0  0
   53.9303  157.1057   -3.1080 C   0  0  0  0  0  0  0  0  0  0  0  0
   54.1706  158.0920   -4.2386 C   0  0  0  0  0  0  0  0  0  0  0  0
   60.3526  161.5401   -6.3498 N   0  0  0  0  0  0  0  0  0  0  0  0
   59.4785  161.2482   -4.1335 N   0  0  0  0  0  0  0  0  0  0  0  0
   52.9578  156.1055   -3.4579 N   0  0  0  0  0  0  0  0  0  0  0  0
   55.1632  159.0833   -3.8905 N   0  0  0  0  0  0  0  0  0  0  0  0
   57.0460  157.9429   -4.6502 O   0  0  0  0  0  0  0  0  0  0  0  0
   61.3948  163.0912   -4.5637 S   0  0  0  0  0  0  0  0  0  0  0  0
   61.4579  162.2083   -8.0426 H   0  0  0  0  0  0  0  0  0  0  0  0
   62.7308  163.9377   -6.4509 H   0  0  0  0  0  0  0  0  0  0  0  0
   58.1515  161.9576   -1.7947 H   0  0  0  0  0  0  0  0  0  0  0  0
   59.0566  160.8381   -0.7820 H   0  0  0  0  0  0  0  0  0  0  0  0
   58.2997  158.9258   -2.1075 H   0  0  0  0  0  0  0  0  0  0  0  0
   56.9033  159.8748   -1.5988 H   0  0  0  0  0  0  0  0  0  0  0  0
   60.5024  162.0312   -2.4685 H   0  0  0  0  0  0  0  0  0  0  0  0
   60.5612  160.2682   -2.5981 H   0  0  0  0  0  0  0  0  0  0  0  0
   59.0953  159.2384   -4.6670 H   0  0  0  0  0  0  0  0  0  0  0  0
   58.2350  160.4517   -5.6235 H   0  0  0  0  0  0  0  0  0  0  0  0
   56.7467  160.9555   -3.7740 H   0  0  0  0  0  0  0  0  0  0  0  0
   53.5694  157.6115   -2.2067 H   0  0  0  0  0  0  0  0  0  0  0  0
   54.8586  156.5797   -2.8644 H   0  0  0  0  0  0  0  0  0  0  0  0
   54.5373  157.5682   -5.1267 H   0  0  0  0  0  0  0  0  0  0  0  0
   53.2522  158.6253   -4.5045 H   0  0  0  0  0  0  0  0  0  0  0  0
   52.1472  156.3743   -3.9924 H   0  0  0  0  0  0  0  0  0  0  0  0
   52.9900  155.2082   -3.0007 H   0  0  0  0  0  0  0  0  0  0  0  0
   54.8531  159.9437   -3.4491 H   0  0  0  0  0  0  0  0  0  0  0  0
  1  2  2  0  0  0  0
  1 12  1  0  0  0  0
  2 17  1  0  0  0  0
  3 12  2  0  0  0  0
  3 13  1  0  0  0  0
  3 17  1  0  0  0  0
  4  9  1  0  0  0  0
  4 15  1  0  0  0  0
  4 16  2  0  0  0  0
  5  6  1  0  0  0  0
  5  7  1  0  0  0  0
  6  9  1  0  0  0  0
  7 13  1  0  0  0  0
  8  9  1  0  0  0  0
  8 13  1  0  0  0  0
 10 11  1  0  0  0  0
 10 14  1  0  0  0  0
 11 15  1  0  0  0  0
  1 18  1  0  0  0  0
  2 19  1  0  0  0  0
  5 20  1  0  0  0  0
  5 21  1  0  0  0  0
  6 22  1  0  0  0  0
  6 23  1  0  0  0  0
  7 24  1  0  0  0  0
  7 25  1  0  0  0  0
  8 26  1  0  0  0  0
  8 27  1  0  0  0  0
  9 28  1  0  0  0  0
 10 29  1  0  0  0  0
 10 30  1  0  0  0  0
 11 31  1  0  0  0  0
 11 32  1  0  0  0  0
 14 33  1  0  0  0  0
 14 34  1  0  0  0  0
 15 35  1  0  0  0  0
M  END
> <FRED Chemgauss4 score>
-6.610160

$$$$
C93825618	P147013249
  -OEChem-05122015083D

 47 49  0     1  0  0  0  0  0999 V2000
   53.5291  155.7129   -3.8141 C   0  0  0  0  0  0  0  0  0  0  0  0
   55.0335  157.4163   -6.1631 C   0  0  0  0  0  0  0  0  0  0  0  0
   54.7701  151.9995   -6.7514 C   0  0  0  0  0  0  0  0  0  0  0  0
   55.8492  152.3491   -5.7680 C   0  0  0  0  0  0  0  0  0  0  0  0
   53.9221  156.3727   -6.1962 C   0  0  0  0  0  0  0  0  0  0  0  0
   55.8083  155.5685   -4.8360 C   0  0  0  0  0  0  0  0  0  0  0  0
   58.5889  156.4820   -5.2614 C   0  0  0  0  0  0  0  0  0  0  0  0
   57.7637  158.3571   -6.5099 C   0  0  0  0  0  0  0  0  0  0  0  0
   59.7820  157.3197   -4.8157 C   0  0  0  0  0  0  0  0  0  0  0  0
   56.2683  156.5610   -5.9090 C   0  0  2  0  0  0  0  0  0  0  0  0
   54.9257  153.4199   -6.2811 C   0  0  0  0  0  0  0  0  0  0  0  0
   54.2936  155.3931   -5.0698 C   0  0  1  0  0  0  0  0  0  0  0  0
   58.9780  159.2005   -6.0698 C   0  0  0  0  0  0  0  0  0  0  0  0
   58.6546  160.1076   -4.8719 C   0  0  0  0  0  0  0  0  0  0  0  0
   59.4340  160.0829   -7.2394 C   0  0  0  0  0  0  0  0  0  0  0  0
   57.4271  157.3491   -5.4936 N   0  0  1  0  0  0  0  0  0  0  0  0
   52.1642  155.6413   -3.9626 N   0  0  0  0  0  0  0  0  0  0  0  0
   53.9332  154.0205   -5.4006 N   0  0  0  0  0  0  0  0  0  0  0  0
   54.0938  155.9929   -2.7595 O   0  0  0  0  0  0  0  0  0  0  0  0
   60.0860  158.3355   -5.7708 O   0  0  0  0  0  0  0  0  0  0  0  0
   55.0983  157.9781   -7.1001 H   0  0  0  0  0  0  0  0  0  0  0  0
   54.8622  158.1283   -5.3462 H   0  0  0  0  0  0  0  0  0  0  0  0
   55.0722  151.7490   -7.7610 H   0  0  0  0  0  0  0  0  0  0  0  0
   53.9186  151.4379   -6.3867 H   0  0  0  0  0  0  0  0  0  0  0  0
   55.7225  152.0226   -4.7430 H   0  0  0  0  0  0  0  0  0  0  0  0
   56.8738  152.3325   -6.1192 H   0  0  0  0  0  0  0  0  0  0  0  0
   52.9349  156.8308   -6.0736 H   0  0  0  0  0  0  0  0  0  0  0  0
   53.9346  155.8751   -7.1751 H   0  0  0  0  0  0  0  0  0  0  0  0
   56.3671  154.6290   -4.9267 H   0  0  0  0  0  0  0  0  0  0  0  0
   56.0080  155.9537   -3.8272 H   0  0  0  0  0  0  0  0  0  0  0  0
   58.8480  155.9370   -6.1787 H   0  0  0  0  0  0  0  0  0  0  0  0
   58.3648  155.7437   -4.4828 H   0  0  0  0  0  0  0  0  0  0  0  0
   56.9045  159.0180   -6.6813 H   0  0  0  0  0  0  0  0  0  0  0  0
   57.9881  157.8562   -7.4621 H   0  0  0  0  0  0  0  0  0  0  0  0
   59.6175  157.7685   -3.8300 H   0  0  0  0  0  0  0  0  0  0  0  0
   60.6663  156.6797   -4.7282 H   0  0  0  0  0  0  0  0  0  0  0  0
   56.5190  156.0072   -6.8242 H   0  0  0  0  0  0  0  0  0  0  0  0
   55.3481  154.1197   -6.9952 H   0  0  0  0  0  0  0  0  0  0  0  0
   59.5389  160.6770   -4.6034 H   0  0  0  0  0  0  0  0  0  0  0  0
   58.3463  159.4951   -4.0304 H   0  0  0  0  0  0  0  0  0  0  0  0
   57.8519  160.7867   -5.1419 H   0  0  0  0  0  0  0  0  0  0  0  0
   60.2893  160.6780   -6.9320 H   0  0  0  0  0  0  0  0  0  0  0  0
   58.6218  160.7414   -7.5342 H   0  0  0  0  0  0  0  0  0  0  0  0
   59.7137  159.4538   -8.0799 H   0  0  0  0  0  0  0  0  0  0  0  0
   51.7855  155.3888   -4.8695 H   0  0  0  0  0  0  0  0  0  0  0  0
   51.5201  155.8309   -3.2015 H   0  0  0  0  0  0  0  0  0  0  0  0
   53.0255  154.0152   -5.8646 H   0  0  0  0  0  0  0  0  0  0  0  0
  1 12  1  0  0  0  0
  1 17  1  0  0  0  0
  1 19  2  0  0  0  0
  2  5  1  0  0  0  0
  2 10  1  0  0  0  0
  3  4  1  0  0  0  0
  3 11  1  0  0  0  0
  4 11  1  0  0  0  0
  5 12  1  0  0  0  0
  6 10  1  0  0  0  0
  6 12  1  0  0  0  0
  7  9  1  0  0  0  0
  7 16  1  0  0  0  0
  8 13  1  0  0  0  0
  8 16  1  0  0  0  0
  9 20  1  0  0  0  0
 10 16  1  0  0  0  0
 11 18  1  0  0  0  0
 12 18  1  0  0  0  0
 13 14  1  0  0  0  0
 13 15  1  0  0  0  0
 13 20  1  0  0  0  0
  2 21  1  0  0  0  0
  2 22  1  0  0  0  0
  3 23  1  0  0  0  0
  3 24  1  0  0  0  0
  4 25  1  0  0  0  0
  4 26  1  0  0  0  0
  5 27  1  0  0  0  0
  5 28  1  0  0  0  0
  6 29  1  0  0  0  0
  6 30  1  0  0  0  0
  7 31  1  0  0  0  0
  7 32  1  0  0  0  0
  8 33  1  0  0  0  0
  8 34  1  0  0  0  0
  9 35  1  0  0  0  0
  9 36  1  0  0  0  0
 10 37  1  0  0  0  0
 11 38  1  0  0  0  0
 14 39  1  0  0  0  0
 14 40  1  0  0  0  0
 14 41  1  0  0  0  0
 15 42  1  0  0  0  0
 15 43  1  0  0  0  0
 15 44  1  0  0  0  0
 17 45  1  0  0  0  0
 17 46  1  0  0  0  0
 18 47  1  0  0  0  0
M  END
> <FRED Chemgauss4 score>
-6.608232

$$$$
C36807941	P54704637
  -OEChem-05122015083D

 43 43  0     1  0  0  0  0  0999 V2000
   55.7335  156.3569   -4.9181 C   0  0  0  0  0  0  0  0  0  0  0  0
   53.6143  156.2852   -4.0887 C   0  0  0  0  0  0  0  0  0  0  0  0
   54.9181  161.1562   -3.3823 C   0  0  0  0  0  0  0  0  0  0  0  0
   54.8357  155.9894   -6.1020 C   0  0  0  0  0  0  0  0  0  0  0  0
   54.8983  157.0669   -7.1764 C   0  0  0  0  0  0  0  0  0  0  0  0
   55.1953  154.6101   -6.6386 C   0  0  0  0  0  0  0  0  0  0  0  0
   59.0496  160.6714   -0.4166 C   0  0  0  0  0  0  0  0  0  0  0  0
   57.0990  161.0189   -4.4519 C   0  0  0  0  0  0  0  0  0  0  0  0
   58.4218  160.2668   -1.7426 C   0  0  0  0  0  0  0  0  0  0  0  0
   57.0517  160.9299   -1.9343 C   0  0  0  0  0  0  0  0  0  0  0  0
   55.4596  156.8701   -2.4919 C   0  0  0  0  0  0  0  0  0  0  0  0
   55.4324  158.3754   -2.3054 C   0  0  0  0  0  0  0  0  0  0  0  0
   56.3206  160.5201   -3.2274 C   0  0  1  0  0  0  0  0  0  0  0  0
   53.5453  155.9761   -5.4481 N   0  0  0  0  0  0  0  0  0  0  0  0
   54.9333  156.5095   -3.8273 N   0  0  0  0  0  0  0  0  0  0  0  0
   56.3097  159.0195   -3.3090 N   0  3  0  0  0  0  0  0  0  0  0  0
   54.7697  162.2971   -2.8588 O   0  5  0  0  0  0  0  0  0  0  0  0
   56.9497  156.4820   -4.9893 O   0  0  0  0  0  0  0  0  0  0  0  0
   52.6610  156.3345   -3.3222 O   0  0  0  0  0  0  0  0  0  0  0  0
   54.0802  160.4648   -4.0301 O   0  0  0  0  0  0  0  0  0  0  0  0
   54.2560  156.7962   -8.0148 H   0  0  0  0  0  0  0  0  0  0  0  0
   55.9216  157.1763   -7.5364 H   0  0  0  0  0  0  0  0  0  0  0  0
   54.5634  158.0209   -6.7684 H   0  0  0  0  0  0  0  0  0  0  0  0
   54.5509  154.3575   -7.4809 H   0  0  0  0  0  0  0  0  0  0  0  0
   55.0661  153.8604   -5.8577 H   0  0  0  0  0  0  0  0  0  0  0  0
   56.2334  154.5981   -6.9718 H   0  0  0  0  0  0  0  0  0  0  0  0
   58.4013  160.4014    0.4231 H   0  0  0  0  0  0  0  0  0  0  0  0
   60.0096  160.1633   -0.2814 H   0  0  0  0  0  0  0  0  0  0  0  0
   59.2284  161.7508   -0.3804 H   0  0  0  0  0  0  0  0  0  0  0  0
   58.1247  160.6313   -4.4581 H   0  0  0  0  0  0  0  0  0  0  0  0
   56.6214  160.6989   -5.3853 H   0  0  0  0  0  0  0  0  0  0  0  0
   57.1646  162.1135   -4.4719 H   0  0  0  0  0  0  0  0  0  0  0  0
   59.1021  160.5551   -2.5509 H   0  0  0  0  0  0  0  0  0  0  0  0
   58.3263  159.1761   -1.7706 H   0  0  0  0  0  0  0  0  0  0  0  0
   57.1856  162.0204   -1.9187 H   0  0  0  0  0  0  0  0  0  0  0  0
   56.4224  160.6945   -1.0657 H   0  0  0  0  0  0  0  0  0  0  0  0
   56.4762  156.4751   -2.3940 H   0  0  0  0  0  0  0  0  0  0  0  0
   54.8325  156.3871   -1.7358 H   0  0  0  0  0  0  0  0  0  0  0  0
   55.8182  158.6617   -1.3229 H   0  0  0  0  0  0  0  0  0  0  0  0
   54.4313  158.7948   -2.4442 H   0  0  0  0  0  0  0  0  0  0  0  0
   52.6748  155.7623   -5.9250 H   0  0  0  0  0  0  0  0  0  0  0  0
   57.2713  158.6849   -3.1974 H   0  0  0  0  0  0  0  0  0  0  0  0
   56.0154  158.7512   -4.2526 H   0  0  0  0  0  0  0  0  0  0  0  0
  1  4  1  0  0  0  0
  1 15  1  0  0  0  0
  1 18  2  0  0  0  0
  2 14  1  0  0  0  0
  2 15  1  0  0  0  0
  2 19  2  0  0  0  0
  3 13  1  0  0  0  0
  3 17  1  0  0  0  0
  3 20  2  0  0  0  0
  4  5  1  0  0  0  0
  4  6  1  0  0  0  0
  4 14  1  0  0  0  0
  7  9  1  0  0  0  0
  8 13  1  0  0  0  0
  9 10  1  0  0  0  0
 10 13  1  0  0  0  0
 11 12  1  0  0  0  0
 11 15  1  0  0  0  0
 12 16  1  0  0  0  0
 13 16  1  0  0  0  0
  5 21  1  0  0  0  0
  5 22  1  0  0  0  0
  5 23  1  0  0  0  0
  6 24  1  0  0  0  0
  6 25  1  0  0  0  0
  6 26  1  0  0  0  0
  7 27  1  0  0  0  0
  7 28  1  0  0  0  0
  7 29  1  0  0  0  0
  8 30  1  0  0  0  0
  8 31  1  0  0  0  0
  8 32  1  0  0  0  0
  9 33  1  0  0  0  0
  9 34  1  0  0  0  0
 10 35  1  0  0  0  0
 10 36  1  0  0  0  0
 11 37  1  0  0  0  0
 11 38  1  0  0  0  0
 12 39  1  0  0  0  0
 12 40  1  0  0  0  0
 14 41  1  0  0  0  0
 16 42  1  0  0  0  0
 16 43  1  0  0  0  0
M  CHG  2  16   1  17  -1
M  END
> <FRED Chemgauss4 score>
-6.608008

$$$$
C87362366	P136701184
  -OEChem-05122015083D

 34 34  0     1  0  0  0  0  0999 V2000
   58.0404  156.3484   -6.2141 C   0  0  0  0  0  0  0  0  0  0  0  0
   58.8333  153.6906   -7.1469 C   0  0  0  0  0  0  0  0  0  0  0  0
   59.4953  154.9102   -7.7561 C   0  0  0  0  0  0  0  0  0  0  0  0
   57.3769  154.0073   -6.8659 C   0  0  0  0  0  0  0  0  0  0  0  0
   59.4380  156.0560   -6.7596 C   0  0  1  0  0  0  0  0  0  0  0  0
   55.0441  156.4343   -6.3486 C   0  0  0  0  0  0  0  0  0  0  0  0
   54.6722  156.5182   -3.5543 C   0  0  0  0  0  0  0  0  0  0  0  0
   55.9622  155.8757   -4.0696 C   0  0  0  0  0  0  0  0  0  0  0  0
   53.5090  155.5359   -3.5791 C   0  0  0  0  0  0  0  0  0  0  0  0
   55.8538  155.4299   -5.5348 C   0  0  2  0  0  0  0  0  0  0  0  0
   57.1695  155.2579   -6.1364 N   0  0  0  0  0  0  0  0  0  0  0  0
   59.9524  157.2686   -7.3462 N   0  0  0  0  0  0  0  0  0  0  0  0
   57.7668  157.4692   -5.7746 O   0  0  0  0  0  0  0  0  0  0  0  0
   52.3421  156.1937   -3.1054 O   0  0  0  0  0  0  0  0  0  0  0  0
   58.9057  152.8352   -7.8273 H   0  0  0  0  0  0  0  0  0  0  0  0
   59.3445  153.4122   -6.2172 H   0  0  0  0  0  0  0  0  0  0  0  0
   60.5364  154.6776   -8.0106 H   0  0  0  0  0  0  0  0  0  0  0  0
   58.9852  155.1754   -8.6915 H   0  0  0  0  0  0  0  0  0  0  0  0
   56.8214  154.0927   -7.8076 H   0  0  0  0  0  0  0  0  0  0  0  0
   56.9336  153.1884   -6.2882 H   0  0  0  0  0  0  0  0  0  0  0  0
   60.0544  155.8006   -5.8809 H   0  0  0  0  0  0  0  0  0  0  0  0
   55.5089  157.4252   -6.3233 H   0  0  0  0  0  0  0  0  0  0  0  0
   54.0277  156.5275   -5.9503 H   0  0  0  0  0  0  0  0  0  0  0  0
   54.9597  156.1216   -7.3954 H   0  0  0  0  0  0  0  0  0  0  0  0
   54.4105  157.3978   -4.1549 H   0  0  0  0  0  0  0  0  0  0  0  0
   54.8147  156.8851   -2.5302 H   0  0  0  0  0  0  0  0  0  0  0  0
   56.2175  155.0169   -3.4355 H   0  0  0  0  0  0  0  0  0  0  0  0
   56.7806  156.6003   -3.9729 H   0  0  0  0  0  0  0  0  0  0  0  0
   53.3194  155.1808   -4.5970 H   0  0  0  0  0  0  0  0  0  0  0  0
   53.7099  154.6755   -2.9329 H   0  0  0  0  0  0  0  0  0  0  0  0
   55.3575  154.4539   -5.5849 H   0  0  0  0  0  0  0  0  0  0  0  0
   60.7224  157.1933   -7.9729 H   0  0  0  0  0  0  0  0  0  0  0  0
   59.6609  158.1362   -6.9541 H   0  0  0  0  0  0  0  0  0  0  0  0
   51.6221  155.5429   -3.1337 H   0  0  0  0  0  0  0  0  0  0  0  0
  1  5  1  0  0  0  0
  1 11  1  0  0  0  0
  1 13  2  0  0  0  0
  2  3  1  0  0  0  0
  2  4  1  0  0  0  0
  3  5  1  0  0  0  0
  4 11  1  0  0  0  0
  5 12  1  0  0  0  0
  6 10  1  0  0  0  0
  7  8  1  0  0  0  0
  7  9  1  0  0  0  0
  8 10  1  0  0  0  0
  9 14  1  0  0  0  0
 10 11  1  0  0  0  0
  2 15  1  0  0  0  0
  2 16  1  0  0  0  0
  3 17  1  0  0  0  0
  3 18  1  0  0  0  0
  4 19  1  0  0  0  0
  4 20  1  0  0  0  0
  5 21  1  0  0  0  0
  6 22  1  0  0  0  0
  6 23  1  0  0  0  0
  6 24  1  0  0  0  0
  7 25  1  0  0  0  0
  7 26  1  0  0  0  0
  8 27  1  0  0  0  0
  8 28  1  0  0  0  0
  9 29  1  0  0  0  0
  9 30  1  0  0  0  0
 10 31  1  0  0  0  0
 12 32  1  0  0  0  0
 12 33  1  0  0  0  0
 14 34  1  0  0  0  0
M  END
> <FRED Chemgauss4 score>
-6.605753

$$$$
C36915741	P54887083
  -OEChem-05122015083D

 28 28  0     1  0  0  0  0  0999 V2000
   55.8681  158.8160   -2.3598 C   0  0  0  0  0  0  0  0  0  0  0  0
   54.8255  157.1051   -2.8748 C   0  0  0  0  0  0  0  0  0  0  0  0
   57.6696  161.2295    0.0557 C   0  0  0  0  0  0  0  0  0  0  0  0
   54.3991  155.0897   -5.4492 C   0  0  0  0  0  0  0  0  0  0  0  0
   56.2127  160.0803   -1.7000 C   0  0  0  0  0  0  0  0  0  0  0  0
   57.2845  159.9124   -0.5992 C   0  0  0  0  0  0  0  0  0  0  0  0
   53.8708  155.9357   -3.0731 C   0  0  2  0  0  0  0  0  0  0  0  0
   53.4106  155.8260   -4.5473 C   0  0  2  0  0  0  0  0  0  0  0  0
   54.7172  158.1388   -2.0790 N   0  0  0  0  0  0  0  0  0  0  0  0
   56.6634  158.2553   -3.2756 N   0  0  0  0  0  0  0  0  0  0  0  0
   52.7343  156.0461   -2.1519 N   0  0  0  0  0  0  0  0  0  0  0  0
   55.9585  157.0966   -3.6250 O   0  0  0  0  0  0  0  0  0  0  0  0
   52.1742  155.1058   -4.5979 O   0  0  0  0  0  0  0  0  0  0  0  0
   58.0461  161.9410   -0.6860 H   0  0  0  0  0  0  0  0  0  0  0  0
   56.8107  161.6817    0.5618 H   0  0  0  0  0  0  0  0  0  0  0  0
   58.4556  161.0672    0.7999 H   0  0  0  0  0  0  0  0  0  0  0  0
   54.6301  154.0898   -5.0715 H   0  0  0  0  0  0  0  0  0  0  0  0
   55.3332  155.6534   -5.5491 H   0  0  0  0  0  0  0  0  0  0  0  0
   53.9868  154.9847   -6.4591 H   0  0  0  0  0  0  0  0  0  0  0  0
   56.5837  160.8359   -2.4269 H   0  0  0  0  0  0  0  0  0  0  0  0
   55.3215  160.5607   -1.2397 H   0  0  0  0  0  0  0  0  0  0  0  0
   56.9125  159.2245    0.1698 H   0  0  0  0  0  0  0  0  0  0  0  0
   58.1809  159.4505   -1.0305 H   0  0  0  0  0  0  0  0  0  0  0  0
   54.4084  155.0125   -2.8185 H   0  0  0  0  0  0  0  0  0  0  0  0
   53.2198  156.8164   -4.9761 H   0  0  0  0  0  0  0  0  0  0  0  0
   52.9030  156.4382   -1.2545 H   0  0  0  0  0  0  0  0  0  0  0  0
   51.9052  155.5473   -2.3790 H   0  0  0  0  0  0  0  0  0  0  0  0
   51.8961  155.1124   -5.5249 H   0  0  0  0  0  0  0  0  0  0  0  0
  1  5  1  0  0  0  0
  1  9  1  0  0  0  0
  1 10  2  0  0  0  0
  2  7  1  0  0  0  0
  2  9  2  0  0  0  0
  2 12  1  0  0  0  0
  3  6  1  0  0  0  0
  4  8  1  0  0  0  0
  5  6  1  0  0  0  0
  7  8  1  0  0  0  0
  7 11  1  0  0  0  0
  8 13  1  0  0  0  0
 10 12  1  0  0  0  0
  3 14  1  0  0  0  0
  3 15  1  0  0  0  0
  3 16  1  0  0  0  0
  4 17  1  0  0  0  0
  4 18  1  0  0  0  0
  4 19  1  0  0  0  0
  5 20  1  0  0  0  0
  5 21  1  0  0  0  0
  6 22  1  0  0  0  0
  6 23  1  0  0  0  0
  7 24  1  0  0  0  0
  8 25  1  0  0  0  0
 11 26  1  0  0  0  0
 11 27  1  0  0  0  0
 13 28  1  0  0  0  0
M  END
> <FRED Chemgauss4 score>
-6.605109

$$$$
C06184893	P09576532
  -OEChem-05122015083D

 35 35  0     1  0  0  0  0  0999 V2000
   53.8290  156.7344   -5.5813 C   0  0  1  0  0  0  0  0  0  0  0  0
   53.5234  156.4811   -4.1015 C   0  0  2  0  0  0  0  0  0  0  0  0
   54.6287  155.5869   -6.1985 C   0  0  1  0  0  0  0  0  0  0  0  0
   54.7904  156.0886   -3.3261 C   0  0  2  0  0  0  0  0  0  0  0  0
   55.8712  155.3148   -5.3498 C   0  0  1  0  0  0  0  0  0  0  0  0
   55.7019  157.2769   -3.0270 C   0  0  0  0  0  0  0  0  0  0  0  0
   59.0551  152.8148   -6.5214 C   0  0  0  0  0  0  0  0  0  0  0  0
   57.3536  154.6005   -7.0290 C   0  0  0  0  0  0  0  0  0  0  0  0
   58.1208  153.4004   -7.5721 C   0  0  2  0  0  0  0  0  0  0  0  0
   55.5099  155.0408   -3.9947 O   0  0  0  0  0  0  0  0  0  0  0  0
   52.6290  156.9361   -6.3190 O   0  0  0  0  0  0  0  0  0  0  0  0
   52.5778  155.4130   -3.9951 O   0  0  0  0  0  0  0  0  0  0  0  0
   53.8386  154.3968   -6.2442 O   0  0  0  0  0  0  0  0  0  0  0  0
   54.9768  158.2177   -2.2567 O   0  0  0  0  0  0  0  0  0  0  0  0
   60.0064  153.8051   -6.1454 O   0  0  0  0  0  0  0  0  0  0  0  0
   57.1839  152.3866   -7.9434 O   0  0  0  0  0  0  0  0  0  0  0  0
   56.5701  154.2063   -5.9125 O   0  0  0  0  0  0  0  0  0  0  0  0
   54.3973  157.6954   -5.6946 H   0  0  0  0  0  0  0  0  0  0  0  0
   53.0812  157.3715   -3.6691 H   0  0  0  0  0  0  0  0  0  0  0  0
   54.9238  155.8524   -7.1933 H   0  0  0  0  0  0  0  0  0  0  0  0
   54.4718  155.6854   -2.3130 H   0  0  0  0  0  0  0  0  0  0  0  0
   56.5314  156.1630   -5.3777 H   0  0  0  0  0  0  0  0  0  0  0  0
   56.0217  157.7434   -3.9585 H   0  0  0  0  0  0  0  0  0  0  0  0
   56.5734  156.9443   -2.4634 H   0  0  0  0  0  0  0  0  0  0  0  0
   59.6044  151.9531   -6.9149 H   0  0  0  0  0  0  0  0  0  0  0  0
   58.5027  152.5179   -5.6244 H   0  0  0  0  0  0  0  0  0  0  0  0
   56.6814  155.0233   -7.7821 H   0  0  0  0  0  0  0  0  0  0  0  0
   58.0373  155.3836   -6.6862 H   0  0  0  0  0  0  0  0  0  0  0  0
   58.6770  153.6632   -8.4790 H   0  0  0  0  0  0  0  0  0  0  0  0
   52.1944  157.7085   -5.9274 H   0  0  0  0  0  0  0  0  0  0  0  0
   52.4096  155.2819   -3.0481 H   0  0  0  0  0  0  0  0  0  0  0  0
   53.0604  154.5975   -6.7891 H   0  0  0  0  0  0  0  0  0  0  0  0
   55.5753  158.9632   -2.0788 H   0  0  0  0  0  0  0  0  0  0  0  0
   60.5816  153.3985   -5.4783 H   0  0  0  0  0  0  0  0  0  0  0  0
   56.7080  152.1468   -7.1346 H   0  0  0  0  0  0  0  0  0  0  0  0
  1  2  1  0  0  0  0
  1  3  1  0  0  0  0
  1 11  1  0  0  0  0
  2  4  1  0  0  0  0
  2 12  1  0  0  0  0
  3  5  1  0  0  0  0
  3 13  1  0  0  0  0
  4  6  1  0  0  0  0
  4 10  1  0  0  0  0
  5 10  1  0  0  0  0
  5 17  1  0  0  0  0
  6 14  1  0  0  0  0
  7  9  1  0  0  0  0
  7 15  1  0  0  0  0
  8  9  1  0  0  0  0
  8 17  1  0  0  0  0
  9 16  1  0  0  0  0
  1 18  1  0  0  0  0
  2 19  1  0  0  0  0
  3 20  1  0  0  0  0
  4 21  1  0  0  0  0
  5 22  1  0  0  0  0
  6 23  1  0  0  0  0
  6 24  1  0  0  0  0
  7 25  1  0  0  0  0
  7 26  1  0  0  0  0
  8 27  1  0  0  0  0
  8 28  1  0  0  0  0
  9 29  1  0  0  0  0
 11 30  1  0  0  0  0
 12 31  1  0  0  0  0
 13 32  1  0  0  0  0
 14 33  1  0  0  0  0
 15 34  1  0  0  0  0
 16 35  1  0  0  0  0
M  END
> <FRED Chemgauss4 score>
-6.604953

$$$$
C36746501	P54604745
  -OEChem-05122015083D

 22 22  0     0  0  0  0  0  0999 V2000
   53.8721  156.0827   -6.6509 C   0  0  0  0  0  0  0  0  0  0  0  0
   53.3381  155.8270   -4.5741 C   0  0  0  0  0  0  0  0  0  0  0  0
   54.7174  152.1157   -8.0694 C   0  0  0  0  0  0  0  0  0  0  0  0
   54.4317  152.3711   -9.5122 C   0  0  0  0  0  0  0  0  0  0  0  0
   55.4557  154.6394   -5.3597 C   0  0  0  0  0  0  0  0  0  0  0  0
   55.2439  153.2413   -5.9158 C   0  0  0  0  0  0  0  0  0  0  0  0
   52.7870  156.7816   -6.5536 N   0  0  0  0  0  0  0  0  0  0  0  0
   52.4224  156.6394   -5.2457 N   0  0  0  0  0  0  0  0  0  0  0  0
   54.2779  155.4746   -5.5139 N   0  0  0  0  0  0  0  0  0  0  0  0
   54.9515  153.2600   -7.3234 N   0  0  0  0  0  0  0  0  0  0  0  0
   54.7261  150.9643   -7.6499 O   0  0  0  0  0  0  0  0  0  0  0  0
   53.2398  155.4179   -2.9682 S   0  0  0  0  0  0  0  0  0  0  0  0
   54.4716  155.9496   -7.5606 H   0  0  0  0  0  0  0  0  0  0  0  0
   55.3458  152.3758  -10.1274 H   0  0  0  0  0  0  0  0  0  0  0  0
   53.7858  151.5968   -9.9564 H   0  0  0  0  0  0  0  0  0  0  0  0
   53.9301  153.3273   -9.7312 H   0  0  0  0  0  0  0  0  0  0  0  0
   56.2850  155.1476   -5.8620 H   0  0  0  0  0  0  0  0  0  0  0  0
   55.6754  154.5887   -4.2888 H   0  0  0  0  0  0  0  0  0  0  0  0
   56.1487  152.6399   -5.7836 H   0  0  0  0  0  0  0  0  0  0  0  0
   54.4137  152.7340   -5.4139 H   0  0  0  0  0  0  0  0  0  0  0  0
   51.5909  157.0909   -4.8870 H   0  0  0  0  0  0  0  0  0  0  0  0
   54.9143  154.1615   -7.7972 H   0  0  0  0  0  0  0  0  0  0  0  0
  1  7  2  0  0  0  0
  1  9  1  0  0  0  0
  2  8  1  0  0  0  0
  2  9  1  0  0  0  0
  2 12  2  0  0  0  0
  3  4  1  0  0  0  0
  3 10  1  0  0  0  0
  3 11  2  0  0  0  0
  5  6  1  0  0  0  0
  5  9  1  0  0  0  0
  6 10  1  0  0  0  0
  7  8  1  0  0  0  0
  1 13  1  0  0  0  0
  4 14  1  0  0  0  0
  4 15  1  0  0  0  0
  4 16  1  0  0  0  0
  5 17  1  0  0  0  0
  5 18  1  0  0  0  0
  6 19  1  0  0  0  0
  6 20  1  0  0  0  0
  8 21  1  0  0  0  0
 10 22  1  0  0  0  0
M  END
> <FRED Chemgauss4 score>
-6.602155

$$$$
C92496043	P144788371
  -OEChem-05122015083D

 36 36  0     1  0  0  0  0  0999 V2000
   53.5062  156.0511   -3.8528 C   0  0  0  0  0  0  0  0  0  0  0  0
   55.4484  158.4618   -4.1438 C   0  0  0  0  0  0  0  0  0  0  0  0
   54.9995  155.0465   -5.5158 C   0  0  0  0  0  0  0  0  0  0  0  0
   56.8231  156.5019   -4.9934 C   0  0  0  0  0  0  0  0  0  0  0  0
   54.4144  156.3707   -5.0217 C   0  0  2  0  0  0  0  0  0  0  0  0
   56.4026  155.4224   -5.9791 C   0  0  2  0  0  0  0  0  0  0  0  0
   57.4742  163.6541   -3.2116 C   0  0  0  0  0  0  0  0  0  0  0  0
   56.6022  158.9499   -3.3048 C   0  0  0  0  0  0  0  0  0  0  0  0
   57.1072  160.4243   -1.4785 C   0  0  0  0  0  0  0  0  0  0  0  0
   57.8119  161.5648   -2.1899 C   0  0  0  0  0  0  0  0  0  0  0  0
   55.5731  157.1774   -4.6486 N   0  0  0  0  0  0  0  0  0  0  0  0
   52.4520  155.2306   -4.1778 N   0  0  0  0  0  0  0  0  0  0  0  0
   56.0659  159.8704   -2.3489 N   0  0  0  0  0  0  0  0  0  0  0  0
   53.7206  156.4824   -2.7226 O   0  0  0  0  0  0  0  0  0  0  0  0
   54.4757  159.1912   -4.3450 O   0  0  0  0  0  0  0  0  0  0  0  0
   56.3545  155.9819   -7.2872 O   0  0  0  0  0  0  0  0  0  0  0  0
   56.8617  162.5646   -2.5356 O   0  0  0  0  0  0  0  0  0  0  0  0
   55.0618  154.3091   -4.7060 H   0  0  0  0  0  0  0  0  0  0  0  0
   54.3862  154.6223   -6.3175 H   0  0  0  0  0  0  0  0  0  0  0  0
   57.2160  156.0658   -4.0691 H   0  0  0  0  0  0  0  0  0  0  0  0
   57.5489  157.2035   -5.4123 H   0  0  0  0  0  0  0  0  0  0  0  0
   53.8356  156.8813   -5.8141 H   0  0  0  0  0  0  0  0  0  0  0  0
   57.0902  154.5721   -5.9941 H   0  0  0  0  0  0  0  0  0  0  0  0
   56.7168  164.4011   -3.4613 H   0  0  0  0  0  0  0  0  0  0  0  0
   57.9592  163.2930   -4.1220 H   0  0  0  0  0  0  0  0  0  0  0  0
   58.2235  164.1034   -2.5556 H   0  0  0  0  0  0  0  0  0  0  0  0
   57.3170  159.4361   -3.9620 H   0  0  0  0  0  0  0  0  0  0  0  0
   57.0525  158.0912   -2.8157 H   0  0  0  0  0  0  0  0  0  0  0  0
   57.8069  159.6210   -1.2267 H   0  0  0  0  0  0  0  0  0  0  0  0
   56.6299  160.7840   -0.5619 H   0  0  0  0  0  0  0  0  0  0  0  0
   58.2724  161.2024   -3.1142 H   0  0  0  0  0  0  0  0  0  0  0  0
   58.5846  162.0165   -1.5593 H   0  0  0  0  0  0  0  0  0  0  0  0
   52.3611  154.9111   -5.1366 H   0  0  0  0  0  0  0  0  0  0  0  0
   51.7611  154.9315   -3.4973 H   0  0  0  0  0  0  0  0  0  0  0  0
   55.3665  159.4068   -1.7546 H   0  0  0  0  0  0  0  0  0  0  0  0
   57.2681  156.2009   -7.5294 H   0  0  0  0  0  0  0  0  0  0  0  0
  1  5  1  0  0  0  0
  1 12  1  0  0  0  0
  1 14  2  0  0  0  0
  2  8  1  0  0  0  0
  2 11  1  0  0  0  0
  2 15  2  0  0  0  0
  3  5  1  0  0  0  0
  3  6  1  0  0  0  0
  4  6  1  0  0  0  0
  4 11  1  0  0  0  0
  5 11  1  0  0  0  0
  6 16  1  0  0  0  0
  7 17  1  0  0  0  0
  8 13  1  0  0  0  0
  9 10  1  0  0  0  0
  9 13  1  0  0  0  0
 10 17  1  0  0  0  0
  3 18  1  0  0  0  0
  3 19  1  0  0  0  0
  4 20  1  0  0  0  0
  4 21  1  0  0  0  0
  5 22  1  0  0  0  0
  6 23  1  0  0  0  0
  7 24  1  0  0  0  0
  7 25  1  0  0  0  0
  7 26  1  0  0  0  0
  8 27  1  0  0  0  0
  8 28  1  0  0  0  0
  9 29  1  0  0  0  0
  9 30  1  0  0  0  0
 10 31  1  0  0  0  0
 10 32  1  0  0  0  0
 12 33  1  0  0  0  0
 12 34  1  0  0  0  0
 13 35  1  0  0  0  0
 16 36  1  0  0  0  0
M  END
> <FRED Chemgauss4 score>
-6.600508

$$$$
Penicillamine	P10000034
  -OEChem-05122015083D

 20 19  0     1  0  0  0  0  0999 V2000
   53.6192  156.5532   -3.3152 C   0  0  0  0  0  0  0  0  0  0  0  0
   55.5844  154.4854   -4.5965 C   0  0  0  0  0  0  0  0  0  0  0  0
   55.5401  155.8669   -6.6856 C   0  0  0  0  0  0  0  0  0  0  0  0
   53.8838  156.4227   -4.8274 C   0  0  1  0  0  0  0  0  0  0  0  0
   55.3023  155.8848   -5.1654 C   0  0  0  0  0  0  0  0  0  0  0  0
   52.8489  155.5783   -5.5110 N   0  3  0  0  0  0  0  0  0  0  0  0
   53.7146  155.4729   -2.6653 O   0  5  0  0  0  0  0  0  0  0  0  0
   53.3260  157.7119   -2.9070 O   0  0  0  0  0  0  0  0  0  0  0  0
   56.5772  157.0242   -4.4550 S   0  0  0  0  0  0  0  0  0  0  0  0
   55.4250  154.4598   -3.5132 H   0  0  0  0  0  0  0  0  0  0  0  0
   56.6110  154.1545   -4.7866 H   0  0  0  0  0  0  0  0  0  0  0  0
   54.9122  153.7330   -5.0277 H   0  0  0  0  0  0  0  0  0  0  0  0
   55.3512  156.8471   -7.1404 H   0  0  0  0  0  0  0  0  0  0  0  0
   56.5792  155.6104   -6.9206 H   0  0  0  0  0  0  0  0  0  0  0  0
   54.8989  155.1326   -7.1873 H   0  0  0  0  0  0  0  0  0  0  0  0
   53.7555  157.4223   -5.2649 H   0  0  0  0  0  0  0  0  0  0  0  0
   53.2665  155.0809   -6.2971 H   0  0  0  0  0  0  0  0  0  0  0  0
   52.0914  156.1665   -5.8579 H   0  0  0  0  0  0  0  0  0  0  0  0
   52.4646  154.8974   -4.8564 H   0  0  0  0  0  0  0  0  0  0  0  0
   57.6142  156.3575   -4.9712 H   0  0  0  0  0  0  0  0  0  0  0  0
  1  4  1  0  0  0  0
  1  7  1  0  0  0  0
  1  8  2  0  0  0  0
  2  5  1  0  0  0  0
  3  5  1  0  0  0  0
  4  5  1  0  0  0  0
  4  6  1  0  0  0  0
  5  9  1  0  0  0  0
  2 10  1  0  0  0  0
  2 11  1  0  0  0  0
  2 12  1  0  0  0  0
  3 13  1  0  0  0  0
  3 14  1  0  0  0  0
  3 15  1  0  0  0  0
  4 16  1  0  0  0  0
  6 17  1  0  0  0  0
  6 18  1  0  0  0  0
  6 19  1  0  0  0  0
  9 20  1  0  0  0  0
M  CHG  2   6   1   7  -1
M  END
> <FRED Chemgauss4 score>
-6.599338

$$$$
C82515868	P128954842
  -OEChem-05122015083D

 28 28  0     1  0  0  0  0  0999 V2000
   53.7628  156.2990   -3.6756 C   0  0  0  0  0  0  0  0  0  0  0  0
   55.2233  155.8930   -3.6803 C   0  0  0  0  0  0  0  0  0  0  0  0
   55.7420  155.3966   -5.0232 C   0  0  0  0  0  0  0  0  0  0  0  0
   53.7926  156.3848   -6.1900 C   0  0  0  0  0  0  0  0  0  0  0  0
   55.3147  156.3102   -6.1698 C   0  0  1  0  0  0  0  0  0  0  0  0
   57.8353  159.4745   -4.8241 C   0  0  0  0  0  0  0  0  0  0  0  0
   57.2779  157.6604   -6.4758 C   0  0  0  0  0  0  0  0  0  0  0  0
   57.8702  159.0547   -6.2874 C   0  0  1  0  0  0  0  0  0  0  0  0
   53.2026  156.6368   -4.8870 N   0  0  0  0  0  0  0  0  0  0  0  0
   55.8937  157.6465   -6.0272 N   0  0  0  0  0  0  0  0  0  0  0  0
   53.1435  156.3925   -2.6140 O   0  0  0  0  0  0  0  0  0  0  0  0
   57.0990  159.9837   -7.0469 O   0  0  0  0  0  0  0  0  0  0  0  0
   55.8210  156.7525   -3.3569 H   0  0  0  0  0  0  0  0  0  0  0  0
   55.3386  155.1049   -2.9263 H   0  0  0  0  0  0  0  0  0  0  0  0
   56.8458  155.3264   -4.9841 H   0  0  0  0  0  0  0  0  0  0  0  0
   55.3787  154.3664   -5.1924 H   0  0  0  0  0  0  0  0  0  0  0  0
   53.4425  157.1962   -6.8461 H   0  0  0  0  0  0  0  0  0  0  0  0
   53.3564  155.4505   -6.5713 H   0  0  0  0  0  0  0  0  0  0  0  0
   55.6695  155.8818   -7.1205 H   0  0  0  0  0  0  0  0  0  0  0  0
   56.8158  159.4502   -4.4273 H   0  0  0  0  0  0  0  0  0  0  0  0
   58.4670  158.8200   -4.2132 H   0  0  0  0  0  0  0  0  0  0  0  0
   58.2291  160.4900   -4.7071 H   0  0  0  0  0  0  0  0  0  0  0  0
   57.3061  157.3650   -7.5302 H   0  0  0  0  0  0  0  0  0  0  0  0
   57.8393  156.9201   -5.8966 H   0  0  0  0  0  0  0  0  0  0  0  0
   58.9010  159.0881   -6.6587 H   0  0  0  0  0  0  0  0  0  0  0  0
   52.2985  157.1024   -4.8680 H   0  0  0  0  0  0  0  0  0  0  0  0
   55.3510  158.3039   -6.5842 H   0  0  0  0  0  0  0  0  0  0  0  0
   57.5108  160.8521   -6.9194 H   0  0  0  0  0  0  0  0  0  0  0  0
  1  2  1  0  0  0  0
  1  9  1  0  0  0  0
  1 11  2  0  0  0  0
  2  3  1  0  0  0  0
  3  5  1  0  0  0  0
  4  5  1  0  0  0  0
  4  9  1  0  0  0  0
  5 10  1  0  0  0  0
  6  8  1  0  0  0  0
  7  8  1  0  0  0  0
  7 10  1  0  0  0  0
  8 12  1  0  0  0  0
  2 13  1  0  0  0  0
  2 14  1  0  0  0  0
  3 15  1  0  0  0  0
  3 16  1  0  0  0  0
  4 17  1  0  0  0  0
  4 18  1  0  0  0  0
  5 19  1  0  0  0  0
  6 20  1  0  0  0  0
  6 21  1  0  0  0  0
  6 22  1  0  0  0  0
  7 23  1  0  0  0  0
  7 24  1  0  0  0  0
  8 25  1  0  0  0  0
  9 26  1  0  0  0  0
 10 27  1  0  0  0  0
 12 28  1  0  0  0  0
M  END
> <FRED Chemgauss4 score>
-6.598983

$$$$
C40545676	P61563278
  -OEChem-05122015083D

 25 25  0     0  0  0  0  0  0999 V2000
   57.0162  154.2043   -6.3060 C   0  0  0  0  0  0  0  0  0  0  0  0
   59.2767  154.9383   -6.7402 C   0  0  0  0  0  0  0  0  0  0  0  0
   56.7352  155.4286   -5.6995 C   0  0  0  0  0  0  0  0  0  0  0  0
   58.9956  156.1626   -6.1337 C   0  0  0  0  0  0  0  0  0  0  0  0
   57.7248  156.4077   -5.6134 C   0  0  0  0  0  0  0  0  0  0  0  0
   58.2870  153.9592   -6.8264 C   0  0  0  0  0  0  0  0  0  0  0  0
   55.3998  155.6596   -5.1645 C   0  0  0  0  0  0  0  0  0  0  0  0
   55.1041  155.9568   -3.8800 C   0  0  0  0  0  0  0  0  0  0  0  0
   60.0676  158.0315   -7.1407 C   0  0  0  0  0  0  0  0  0  0  0  0
   53.7164  156.2010   -3.3801 C   0  0  0  0  0  0  0  0  0  0  0  0
   57.4640  157.6100   -5.0226 O   0  0  0  0  0  0  0  0  0  0  0  0
   53.4309  155.2643   -2.3506 O   0  0  0  0  0  0  0  0  0  0  0  0
   59.9715  157.1099   -6.0564 O   0  0  0  0  0  0  0  0  0  0  0  0
   58.6687  152.3006   -7.6483 Br  0  0  0  0  0  0  0  0  0  0  0  0
   56.2439  153.4402   -6.3734 H   0  0  0  0  0  0  0  0  0  0  0  0
   60.2705  154.7568   -7.1429 H   0  0  0  0  0  0  0  0  0  0  0  0
   54.5726  155.6030   -5.8791 H   0  0  0  0  0  0  0  0  0  0  0  0
   55.8987  156.0508   -3.1446 H   0  0  0  0  0  0  0  0  0  0  0  0
   60.8851  158.7319   -6.9532 H   0  0  0  0  0  0  0  0  0  0  0  0
   59.1247  158.5744   -7.2433 H   0  0  0  0  0  0  0  0  0  0  0  0
   60.2690  157.4779   -8.0609 H   0  0  0  0  0  0  0  0  0  0  0  0
   53.6457  157.2105   -2.9633 H   0  0  0  0  0  0  0  0  0  0  0  0
   52.9655  156.0914   -4.1689 H   0  0  0  0  0  0  0  0  0  0  0  0
   58.2541  158.1708   -5.0466 H   0  0  0  0  0  0  0  0  0  0  0  0
   52.5268  155.4475   -2.0474 H   0  0  0  0  0  0  0  0  0  0  0  0
  1  3  2  0  0  0  0
  1  6  1  0  0  0  0
  2  4  1  0  0  0  0
  2  6  2  0  0  0  0
  3  5  1  0  0  0  0
  3  7  1  0  0  0  0
  4  5  2  0  0  0  0
  4 13  1  0  0  0  0
  5 11  1  0  0  0  0
  6 14  1  0  0  0  0
  7  8  2  0  0  0  0
  8 10  1  0  0  0  0
  9 13  1  0  0  0  0
 10 12  1  0  0  0  0
  1 15  1  0  0  0  0
  2 16  1  0  0  0  0
  7 17  1  0  0  0  0
  8 18  1  0  0  0  0
  9 19  1  0  0  0  0
  9 20  1  0  0  0  0
  9 21  1  0  0  0  0
 10 22  1  0  0  0  0
 10 23  1  0  0  0  0
 11 24  1  0  0  0  0
 12 25  1  0  0  0  0
M  END
> <FRED Chemgauss4 score>
-6.598109

$$$$
C82463068	P128876951
  -OEChem-05122015083D

 30 30  0     1  0  0  0  0  0999 V2000
   53.1925  155.6521   -3.9933 C   0  0  0  0  0  0  0  0  0  0  0  0
   59.6945  156.1051   -7.2914 C   0  0  0  0  0  0  0  0  0  0  0  0
   57.6016  156.4073   -6.1400 C   0  0  0  0  0  0  0  0  0  0  0  0
   59.1505  154.8090   -7.8840 C   0  0  0  0  0  0  0  0  0  0  0  0
   57.0973  155.1006   -6.7641 C   0  0  2  0  0  0  0  0  0  0  0  0
   59.0859  158.2840   -6.4549 C   0  0  0  0  0  0  0  0  0  0  0  0
   54.0354  154.5941   -4.6672 C   0  0  0  0  0  0  0  0  0  0  0  0
   56.1222  154.3901   -5.8352 C   0  0  0  0  0  0  0  0  0  0  0  0
   58.5883  157.0362   -7.0308 N   0  0  1  0  0  0  0  0  0  0  0  0
   52.0636  155.9638   -4.7201 N   0  0  0  0  0  0  0  0  0  0  0  0
   55.0025  155.2316   -5.5689 N   0  0  0  0  0  0  0  0  0  0  0  0
   53.4570  156.1458   -2.9005 O   0  0  0  0  0  0  0  0  0  0  0  0
   58.1998  154.2172   -6.9981 O   0  0  0  0  0  0  0  0  0  0  0  0
   60.2329  155.8834   -6.3607 H   0  0  0  0  0  0  0  0  0  0  0  0
   60.4057  156.5480   -7.9980 H   0  0  0  0  0  0  0  0  0  0  0  0
   56.7528  157.0841   -5.9849 H   0  0  0  0  0  0  0  0  0  0  0  0
   58.0549  156.2039   -5.1605 H   0  0  0  0  0  0  0  0  0  0  0  0
   58.6850  154.9751   -8.8632 H   0  0  0  0  0  0  0  0  0  0  0  0
   59.9660  154.0921   -8.0231 H   0  0  0  0  0  0  0  0  0  0  0  0
   56.5921  155.2979   -7.7184 H   0  0  0  0  0  0  0  0  0  0  0  0
   58.2547  158.9681   -6.2655 H   0  0  0  0  0  0  0  0  0  0  0  0
   59.7874  158.7643   -7.1424 H   0  0  0  0  0  0  0  0  0  0  0  0
   59.6006  158.0858   -5.5109 H   0  0  0  0  0  0  0  0  0  0  0  0
   53.4133  153.9186   -5.2607 H   0  0  0  0  0  0  0  0  0  0  0  0
   54.5848  154.0274   -3.9106 H   0  0  0  0  0  0  0  0  0  0  0  0
   56.6261  154.1629   -4.9034 H   0  0  0  0  0  0  0  0  0  0  0  0
   55.7773  153.4795   -6.3097 H   0  0  0  0  0  0  0  0  0  0  0  0
   51.8682  155.5033   -5.6029 H   0  0  0  0  0  0  0  0  0  0  0  0
   51.3894  156.6553   -4.4076 H   0  0  0  0  0  0  0  0  0  0  0  0
   54.5087  155.4713   -6.4408 H   0  0  0  0  0  0  0  0  0  0  0  0
  1  7  1  0  0  0  0
  1 10  1  0  0  0  0
  1 12  2  0  0  0  0
  2  4  1  0  0  0  0
  2  9  1  0  0  0  0
  3  5  1  0  0  0  0
  3  9  1  0  0  0  0
  4 13  1  0  0  0  0
  5  8  1  0  0  0  0
  5 13  1  0  0  0  0
  6  9  1  0  0  0  0
  7 11  1  0  0  0  0
  8 11  1  0  0  0  0
  2 14  1  0  0  0  0
  2 15  1  0  0  0  0
  3 16  1  0  0  0  0
  3 17  1  0  0  0  0
  4 18  1  0  0  0  0
  4 19  1  0  0  0  0
  5 20  1  0  0  0  0
  6 21  1  0  0  0  0
  6 22  1  0  0  0  0
  6 23  1  0  0  0  0
  7 24  1  0  0  0  0
  7 25  1  0  0  0  0
  8 26  1  0  0  0  0
  8 27  1  0  0  0  0
 10 28  1  0  0  0  0
 10 29  1  0  0  0  0
 11 30  1  0  0  0  0
M  END
> <FRED Chemgauss4 score>
-6.596649

$$$$
C82924737	P129630013
  -OEChem-05122015083D

 28 28  0     0  0  0  0  0  0999 V2000
   61.7049  157.1964   -8.8206 C   0  0  0  0  0  0  0  0  0  0  0  0
   55.5272  156.3370   -6.6335 C   0  0  0  0  0  0  0  0  0  0  0  0
   55.6749  154.5191   -5.4052 C   0  0  0  0  0  0  0  0  0  0  0  0
   56.4130  155.3125   -6.2492 C   0  0  0  0  0  0  0  0  0  0  0  0
   60.3152  157.3795   -8.3763 C   0  0  0  0  0  0  0  0  0  0  0  0
   57.8424  155.1252   -6.6683 C   0  0  0  0  0  0  0  0  0  0  0  0
   53.3144  154.6181   -4.5702 C   0  0  0  0  0  0  0  0  0  0  0  0
   59.7579  156.1232   -7.7154 C   0  0  0  0  0  0  0  0  0  0  0  0
   53.1058  155.4121   -3.2877 C   0  0  0  0  0  0  0  0  0  0  0  0
   62.8016  157.0541   -9.1720 N   0  0  0  0  0  0  0  0  0  0  0  0
   54.3188  156.2086   -6.0793 N   0  0  0  0  0  0  0  0  0  0  0  0
   54.4399  155.0941   -5.3382 N   0  0  0  0  0  0  0  0  0  0  0  0
   58.3905  156.3261   -7.2939 N   0  0  0  0  0  0  0  0  0  0  0  0
   52.8319  156.7707   -3.6046 O   0  0  0  0  0  0  0  0  0  0  0  0
   55.7094  157.1723   -7.2948 H   0  0  0  0  0  0  0  0  0  0  0  0
   55.9168  153.6162   -4.8612 H   0  0  0  0  0  0  0  0  0  0  0  0
   59.6951  157.6283   -9.2453 H   0  0  0  0  0  0  0  0  0  0  0  0
   60.2576  158.2298   -7.6866 H   0  0  0  0  0  0  0  0  0  0  0  0
   58.4691  154.8791   -5.8042 H   0  0  0  0  0  0  0  0  0  0  0  0
   57.9374  154.3018   -7.3840 H   0  0  0  0  0  0  0  0  0  0  0  0
   52.4294  154.6687   -5.2151 H   0  0  0  0  0  0  0  0  0  0  0  0
   53.5040  153.5631   -4.3416 H   0  0  0  0  0  0  0  0  0  0  0  0
   59.7819  155.2926   -8.4284 H   0  0  0  0  0  0  0  0  0  0  0  0
   60.3651  155.8350   -6.8501 H   0  0  0  0  0  0  0  0  0  0  0  0
   52.2441  155.0148   -2.7422 H   0  0  0  0  0  0  0  0  0  0  0  0
   53.9851  155.3732   -2.6366 H   0  0  0  0  0  0  0  0  0  0  0  0
   58.3453  157.0959   -6.6210 H   0  0  0  0  0  0  0  0  0  0  0  0
   52.7068  157.2349   -2.7612 H   0  0  0  0  0  0  0  0  0  0  0  0
  1  5  1  0  0  0  0
  1 10  3  0  0  0  0
  2  4  1  0  0  0  0
  2 11  2  0  0  0  0
  3  4  2  0  0  0  0
  3 12  1  0  0  0  0
  4  6  1  0  0  0  0
  5  8  1  0  0  0  0
  6 13  1  0  0  0  0
  7  9  1  0  0  0  0
  7 12  1  0  0  0  0
  8 13  1  0  0  0  0
  9 14  1  0  0  0  0
 11 12  1  0  0  0  0
  2 15  1  0  0  0  0
  3 16  1  0  0  0  0
  5 17  1  0  0  0  0
  5 18  1  0  0  0  0
  6 19  1  0  0  0  0
  6 20  1  0  0  0  0
  7 21  1  0  0  0  0
  7 22  1  0  0  0  0
  8 23  1  0  0  0  0
  8 24  1  0  0  0  0
  9 25  1  0  0  0  0
  9 26  1  0  0  0  0
 13 27  1  0  0  0  0
 14 28  1  0  0  0  0
M  END
> <FRED Chemgauss4 score>
-6.593158

$$$$
C63135344	P96965078
  -OEChem-05122015083D

 23 23  0     0  0  0  0  0  0999 V2000
   58.0911  161.6699   -0.8300 C   0  0  0  0  0  0  0  0  0  0  0  0
   57.5988  161.0858    0.3183 C   0  0  0  0  0  0  0  0  0  0  0  0
   57.1527  159.9055   -1.7336 C   0  0  0  0  0  0  0  0  0  0  0  0
   53.7904  156.5025   -3.2407 C   0  0  0  0  0  0  0  0  0  0  0  0
   56.6871  158.9076   -2.7653 C   0  0  0  0  0  0  0  0  0  0  0  0
   53.6059  155.5756   -4.4150 C   0  0  0  0  0  0  0  0  0  0  0  0
   55.3758  158.2248   -2.3840 C   0  0  0  0  0  0  0  0  0  0  0  0
   57.8366  160.9943   -2.0076 N   0  0  0  0  0  0  0  0  0  0  0  0
   52.3444  155.8927   -5.1003 N   0  0  0  0  0  0  0  0  0  0  0  0
   54.9513  157.2521   -3.3651 N   0  0  0  0  0  0  0  0  0  0  0  0
   52.9994  156.5719   -2.3038 O   0  0  0  0  0  0  0  0  0  0  0  0
   56.7807  159.6323   -0.0808 S   0  0  0  0  0  0  0  0  0  0  0  0
   58.6471  162.5972   -0.8641 H   0  0  0  0  0  0  0  0  0  0  0  0
   57.6763  161.4336    1.3386 H   0  0  0  0  0  0  0  0  0  0  0  0
   57.4683  158.1474   -2.8915 H   0  0  0  0  0  0  0  0  0  0  0  0
   56.5862  159.4014   -3.7402 H   0  0  0  0  0  0  0  0  0  0  0  0
   54.4372  155.6985   -5.1156 H   0  0  0  0  0  0  0  0  0  0  0  0
   53.5752  154.5387   -4.0678 H   0  0  0  0  0  0  0  0  0  0  0  0
   55.4965  157.6872   -1.4382 H   0  0  0  0  0  0  0  0  0  0  0  0
   54.5633  158.9489   -2.2639 H   0  0  0  0  0  0  0  0  0  0  0  0
   51.9231  155.1756   -5.6416 H   0  0  0  0  0  0  0  0  0  0  0  0
   52.0818  156.8479   -5.1598 H   0  0  0  0  0  0  0  0  0  0  0  0
   55.5319  157.1102   -4.1865 H   0  0  0  0  0  0  0  0  0  0  0  0
  1  2  2  0  0  0  0
  1  8  1  0  0  0  0
  2 12  1  0  0  0  0
  3  5  1  0  0  0  0
  3  8  2  0  0  0  0
  3 12  1  0  0  0  0
  4  6  1  0  0  0  0
  4 10  1  0  0  0  0
  4 11  2  0  0  0  0
  5  7  1  0  0  0  0
  6  9  1  0  0  0  0
  7 10  1  0  0  0  0
  1 13  1  0  0  0  0
  2 14  1  0  0  0  0
  5 15  1  0  0  0  0
  5 16  1  0  0  0  0
  6 17  1  0  0  0  0
  6 18  1  0  0  0  0
  7 19  1  0  0  0  0
  7 20  1  0  0  0  0
  9 21  1  0  0  0  0
  9 22  1  0  0  0  0
 10 23  1  0  0  0  0
M  END
> <FRED Chemgauss4 score>
-6.575207

$$$$
C87111177	P136357235
  -OEChem-05122015083D

 24 24  0     1  0  0  0  0  0999 V2000
   57.5324  155.7933   -6.3446 C   0  0  0  0  0  0  0  0  0  0  0  0
   57.8241  153.4407   -6.7504 C   0  0  0  0  0  0  0  0  0  0  0  0
   58.8512  155.9686   -6.7318 C   0  0  0  0  0  0  0  0  0  0  0  0
   59.1297  153.7213   -7.1196 C   0  0  0  0  0  0  0  0  0  0  0  0
   57.0167  154.5022   -6.3569 C   0  0  0  0  0  0  0  0  0  0  0  0
   53.0590  155.2153   -3.7447 C   0  0  0  0  0  0  0  0  0  0  0  0
   54.8346  155.9149   -5.4874 C   0  0  0  0  0  0  0  0  0  0  0  0
   53.3738  156.0093   -5.0195 C   0  0  2  0  0  0  0  0  0  0  0  0
   59.6661  154.9623   -7.1204 N   0  0  0  0  0  0  0  0  0  0  0  0
   53.0436  157.4206   -4.7789 N   0  0  0  0  0  0  0  0  0  0  0  0
   53.8603  155.6591   -2.6578 O   0  0  0  0  0  0  0  0  0  0  0  0
   55.3434  154.2113   -5.8742 S   0  0  0  0  0  0  0  0  0  0  0  0
   56.9363  156.6490   -6.0448 H   0  0  0  0  0  0  0  0  0  0  0  0
   57.4598  152.4187   -6.7733 H   0  0  0  0  0  0  0  0  0  0  0  0
   59.3013  156.9559   -6.7402 H   0  0  0  0  0  0  0  0  0  0  0  0
   59.8001  152.9286   -7.4350 H   0  0  0  0  0  0  0  0  0  0  0  0
   52.0042  155.3252   -3.4671 H   0  0  0  0  0  0  0  0  0  0  0  0
   53.2489  154.1476   -3.8953 H   0  0  0  0  0  0  0  0  0  0  0  0
   54.9781  156.5061   -6.3990 H   0  0  0  0  0  0  0  0  0  0  0  0
   55.5216  156.3123   -4.7323 H   0  0  0  0  0  0  0  0  0  0  0  0
   52.7088  155.6570   -5.8174 H   0  0  0  0  0  0  0  0  0  0  0  0
   52.2778  157.6181   -4.1788 H   0  0  0  0  0  0  0  0  0  0  0  0
   53.4584  158.0981   -5.3745 H   0  0  0  0  0  0  0  0  0  0  0  0
   53.6129  155.1200   -1.8892 H   0  0  0  0  0  0  0  0  0  0  0  0
  1  3  1  0  0  0  0
  1  5  2  0  0  0  0
  2  4  2  0  0  0  0
  2  5  1  0  0  0  0
  3  9  2  0  0  0  0
  4  9  1  0  0  0  0
  5 12  1  0  0  0  0
  6  8  1  0  0  0  0
  6 11  1  0  0  0  0
  7  8  1  0  0  0  0
  7 12  1  0  0  0  0
  8 10  1  0  0  0  0
  1 13  1  0  0  0  0
  2 14  1  0  0  0  0
  3 15  1  0  0  0  0
  4 16  1  0  0  0  0
  6 17  1  0  0  0  0
  6 18  1  0  0  0  0
  7 19  1  0  0  0  0
  7 20  1  0  0  0  0
  8 21  1  0  0  0  0
 10 22  1  0  0  0  0
 10 23  1  0  0  0  0
 11 24  1  0  0  0  0
M  END
> <FRED Chemgauss4 score>
-6.564615

$$$$
C50242200	P137988432
  -OEChem-05122015083D

 32 33  0     1  0  0  0  0  0999 V2000
   57.7744  160.7714   -4.0789 C   0  0  0  0  0  0  0  0  0  0  0  0
   57.0240  160.1530   -3.0374 C   0  0  0  0  0  0  0  0  0  0  0  0
   58.9810  161.2593   -3.6278 C   0  0  0  0  0  0  0  0  0  0  0  0
   57.6860  160.1916   -1.8298 C   0  0  0  0  0  0  0  0  0  0  0  0
   60.0021  161.9363   -4.3593 C   0  0  0  0  0  0  0  0  0  0  0  0
   56.2630  157.0639   -6.3482 C   0  0  0  0  0  0  0  0  0  0  0  0
   56.5601  158.3159   -5.5348 C   0  0  0  0  0  0  0  0  0  0  0  0
   54.8386  157.0054   -4.4376 C   0  0  0  0  0  0  0  0  0  0  0  0
   54.8410  156.7046   -5.9374 C   0  0  1  0  0  0  0  0  0  0  0  0
   60.6327  162.7598   -6.5325 C   0  0  0  0  0  0  0  0  0  0  0  0
   55.8640  158.0762   -4.2402 N   0  0  2  0  0  0  0  0  0  0  0  0
   53.8637  157.5438   -6.6292 N   0  0  0  0  0  0  0  0  0  0  0  0
   61.0829  162.3558   -3.8818 O   0  0  0  0  0  0  0  0  0  0  0  0
   54.9224  158.9992   -2.0249 O   0  0  0  0  0  0  0  0  0  0  0  0
   54.6695  160.3564   -4.1324 O   0  0  0  0  0  0  0  0  0  0  0  0
   59.6844  162.0942   -5.6914 O   0  0  0  0  0  0  0  0  0  0  0  0
   59.2055  160.9712   -1.9547 S   0  0  0  0  0  0  0  0  0  0  0  0
   55.4332  159.4329   -3.3128 S   0  0  0  0  0  0  0  0  0  0  0  0
   57.0425  159.4827   -0.1836 Br  0  0  0  0  0  0  0  0  0  0  0  0
   57.4478  160.8550   -5.1083 H   0  0  0  0  0  0  0  0  0  0  0  0
   56.3179  157.2955   -7.4253 H   0  0  0  0  0  0  0  0  0  0  0  0
   56.9826  156.2560   -6.1478 H   0  0  0  0  0  0  0  0  0  0  0  0
   57.6385  158.4184   -5.3704 H   0  0  0  0  0  0  0  0  0  0  0  0
   56.1753  159.2157   -6.0211 H   0  0  0  0  0  0  0  0  0  0  0  0
   53.8729  157.4028   -4.0938 H   0  0  0  0  0  0  0  0  0  0  0  0
   55.0623  156.1042   -3.8519 H   0  0  0  0  0  0  0  0  0  0  0  0
   54.6352  155.6734   -6.1221 H   0  0  0  0  0  0  0  0  0  0  0  0
   60.2442  162.8093   -7.5527 H   0  0  0  0  0  0  0  0  0  0  0  0
   61.5798  162.2145   -6.5179 H   0  0  0  0  0  0  0  0  0  0  0  0
   60.7920  163.7730   -6.1562 H   0  0  0  0  0  0  0  0  0  0  0  0
   52.9815  157.7104   -6.1879 H   0  0  0  0  0  0  0  0  0  0  0  0
   54.0168  157.7558   -7.5950 H   0  0  0  0  0  0  0  0  0  0  0  0
  1  2  1  0  0  0  0
  1  3  2  0  0  0  0
  2  4  2  0  0  0  0
  2 18  1  0  0  0  0
  3  5  1  0  0  0  0
  3 17  1  0  0  0  0
  4 17  1  0  0  0  0
  4 19  1  0  0  0  0
  5 13  2  0  0  0  0
  5 16  1  0  0  0  0
  6  7  1  0  0  0  0
  6  9  1  0  0  0  0
  7 11  1  0  0  0  0
  8  9  1  0  0  0  0
  8 11  1  0  0  0  0
  9 12  1  0  0  0  0
 10 16  1  0  0  0  0
 11 18  1  0  0  0  0
 14 18  2  0  0  0  0
 15 18  2  0  0  0  0
  1 20  1  0  0  0  0
  6 21  1  0  0  0  0
  6 22  1  0  0  0  0
  7 23  1  0  0  0  0
  7 24  1  0  0  0  0
  8 25  1  0  0  0  0
  8 26  1  0  0  0  0
  9 27  1  0  0  0  0
 10 28  1  0  0  0  0
 10 29  1  0  0  0  0
 10 30  1  0  0  0  0
 12 31  1  0  0  0  0
 12 32  1  0  0  0  0
M  END
> <FRED Chemgauss4 score>
-6.561818

$$$$
C97760673	P155145279
  -OEChem-05122015083D

 40 42  0     1  0  0  0  0  0999 V2000
   54.7365  155.0309   -5.3889 C   0  0  0  0  0  0  0  0  0  0  0  0
   55.0267  153.9874   -6.2698 C   0  0  0  0  0  0  0  0  0  0  0  0
   56.9832  155.9330   -5.6493 C   0  0  0  0  0  0  0  0  0  0  0  0
   55.6602  160.1827   -1.0041 C   0  0  0  0  0  0  0  0  0  0  0  0
   56.8881  160.4964   -1.5373 C   0  0  0  0  0  0  0  0  0  0  0  0
   57.2606  154.8886   -6.5117 C   0  0  0  0  0  0  0  0  0  0  0  0
   55.7088  155.9968   -5.0795 C   0  0  0  0  0  0  0  0  0  0  0  0
   56.2966  153.9373   -6.8108 C   0  0  0  0  0  0  0  0  0  0  0  0
   56.2230  158.4927   -2.1693 C   0  0  0  0  0  0  0  0  0  0  0  0
   58.4838  154.6103   -7.2950 C   0  0  0  0  0  0  0  0  0  0  0  0
   58.1620  153.1844   -7.7445 C   0  0  0  0  0  0  0  0  0  0  0  0
   58.4156  160.0319   -4.3467 C   0  0  0  0  0  0  0  0  0  0  0  0
   56.2653  157.1520   -2.8665 C   0  0  0  0  0  0  0  0  0  0  0  0
   58.4552  159.2573   -3.0406 C   0  0  0  0  0  0  0  0  0  0  0  0
   55.3731  157.1071   -4.1403 C   0  0  2  0  0  0  0  0  0  0  0  0
   55.2519  158.9340   -1.4011 N   0  0  0  0  0  0  0  0  0  0  0  0
   57.2360  159.4040   -2.2809 N   0  0  0  0  0  0  0  0  0  0  0  0
   53.1887  157.6603   -4.7654 N   0  0  0  0  0  0  0  0  0  0  0  0
   53.9538  157.0653   -3.7266 N   0  0  0  0  0  0  0  0  0  0  0  0
   56.7295  152.9825   -7.6954 O   0  0  0  0  0  0  0  0  0  0  0  0
   53.7460  155.0921   -4.9448 H   0  0  0  0  0  0  0  0  0  0  0  0
   54.2779  153.2424   -6.5142 H   0  0  0  0  0  0  0  0  0  0  0  0
   57.7343  156.6848   -5.4286 H   0  0  0  0  0  0  0  0  0  0  0  0
   55.0494  160.7925   -0.3545 H   0  0  0  0  0  0  0  0  0  0  0  0
   57.5199  161.3697   -1.4542 H   0  0  0  0  0  0  0  0  0  0  0  0
   58.5484  155.2897   -8.1508 H   0  0  0  0  0  0  0  0  0  0  0  0
   59.4059  154.6553   -6.7100 H   0  0  0  0  0  0  0  0  0  0  0  0
   58.5202  152.9918   -8.7611 H   0  0  0  0  0  0  0  0  0  0  0  0
   58.6260  152.4461   -7.0780 H   0  0  0  0  0  0  0  0  0  0  0  0
   57.5874  159.6972   -4.9803 H   0  0  0  0  0  0  0  0  0  0  0  0
   59.3485  159.8892   -4.9008 H   0  0  0  0  0  0  0  0  0  0  0  0
   58.2857  161.1042   -4.1667 H   0  0  0  0  0  0  0  0  0  0  0  0
   55.9459  156.3905   -2.1412 H   0  0  0  0  0  0  0  0  0  0  0  0
   57.3043  156.8983   -3.1149 H   0  0  0  0  0  0  0  0  0  0  0  0
   59.2866  159.5990   -2.4138 H   0  0  0  0  0  0  0  0  0  0  0  0
   58.6084  158.1887   -3.2297 H   0  0  0  0  0  0  0  0  0  0  0  0
   55.4919  158.0785   -4.6559 H   0  0  0  0  0  0  0  0  0  0  0  0
   53.7887  157.8594   -5.5655 H   0  0  0  0  0  0  0  0  0  0  0  0
   52.5114  156.9714   -5.0901 H   0  0  0  0  0  0  0  0  0  0  0  0
   53.8558  157.5983   -2.8718 H   0  0  0  0  0  0  0  0  0  0  0  0
  1  2  2  0  0  0  0
  1  7  1  0  0  0  0
  2  8  1  0  0  0  0
  3  6  1  0  0  0  0
  3  7  2  0  0  0  0
  4  5  2  0  0  0  0
  4 16  1  0  0  0  0
  5 17  1  0  0  0  0
  6  8  2  0  0  0  0
  6 10  1  0  0  0  0
  7 15  1  0  0  0  0
  8 20  1  0  0  0  0
  9 13  1  0  0  0  0
  9 16  2  0  0  0  0
  9 17  1  0  0  0  0
 10 11  1  0  0  0  0
 11 20  1  0  0  0  0
 12 14  1  0  0  0  0
 13 15  1  0  0  0  0
 14 17  1  0  0  0  0
 15 19  1  0  0  0  0
 18 19  1  0  0  0  0
  1 21  1  0  0  0  0
  2 22  1  0  0  0  0
  3 23  1  0  0  0  0
  4 24  1  0  0  0  0
  5 25  1  0  0  0  0
 10 26  1  0  0  0  0
 10 27  1  0  0  0  0
 11 28  1  0  0  0  0
 11 29  1  0  0  0  0
 12 30  1  0  0  0  0
 12 31  1  0  0  0  0
 12 32  1  0  0  0  0
 13 33  1  0  0  0  0
 13 34  1  0  0  0  0
 14 35  1  0  0  0  0
 14 36  1  0  0  0  0
 15 37  1  0  0  0  0
 18 38  1  0  0  0  0
 18 39  1  0  0  0  0
 19 40  1  0  0  0  0
M  END
> <FRED Chemgauss4 score>
-6.560994

$$$$
C70239492	P108269149
  -OEChem-05122015083D

 42 43  0     1  0  0  0  0  0999 V2000
   60.9180  161.3676   -6.5069 C   0  0  0  0  0  0  0  0  0  0  0  0
   55.3599  155.8260   -5.8811 C   0  0  0  0  0  0  0  0  0  0  0  0
   54.2217  156.4233   -5.3394 C   0  0  0  0  0  0  0  0  0  0  0  0
   60.1650  160.2203   -6.1238 C   0  0  0  0  0  0  0  0  0  0  0  0
   55.4760  158.4489   -4.9378 C   0  0  0  0  0  0  0  0  0  0  0  0
   60.4601  162.5145   -5.8965 C   0  0  0  0  0  0  0  0  0  0  0  0
   56.5561  156.5400   -5.9510 C   0  0  0  0  0  0  0  0  0  0  0  0
   54.2798  157.7348   -4.8678 C   0  0  0  0  0  0  0  0  0  0  0  0
   56.6141  157.8515   -5.4794 C   0  0  0  0  0  0  0  0  0  0  0  0
   59.1604  160.5339   -5.2349 C   0  0  0  0  0  0  0  0  0  0  0  0
   57.7278  155.8864   -6.5202 C   0  0  0  0  0  0  0  0  0  0  0  0
   60.1578  157.3182   -2.1606 C   0  0  0  0  0  0  0  0  0  0  0  0
   58.9226  153.7115   -6.8580 C   0  0  0  0  0  0  0  0  0  0  0  0
   59.6371  157.8604   -3.4828 C   0  0  0  0  0  0  0  0  0  0  0  0
   58.6641  159.0238   -3.2658 C   0  0  0  0  0  0  0  0  0  0  0  0
   58.1476  159.6079   -4.5910 C   0  0  2  0  0  0  0  0  0  0  0  0
   53.1285  158.3386   -4.3208 N   0  0  0  0  0  0  0  0  0  0  0  0
   57.7930  158.5767   -5.5383 N   0  0  0  0  0  0  0  0  0  0  0  0
   57.8131  154.4987   -6.3701 N   0  0  0  0  0  0  0  0  0  0  0  0
   58.6062  156.5557   -7.0891 O   0  0  0  0  0  0  0  0  0  0  0  0
   59.1276  162.2058   -4.8661 S   0  0  0  0  0  0  0  0  0  0  0  0
   61.7535  161.3533   -7.1944 H   0  0  0  0  0  0  0  0  0  0  0  0
   55.3018  154.8031   -6.2444 H   0  0  0  0  0  0  0  0  0  0  0  0
   53.2945  155.8581   -5.2892 H   0  0  0  0  0  0  0  0  0  0  0  0
   60.3558  159.2171   -6.4838 H   0  0  0  0  0  0  0  0  0  0  0  0
   55.5205  159.4714   -4.5685 H   0  0  0  0  0  0  0  0  0  0  0  0
   60.8439  163.5189   -6.0066 H   0  0  0  0  0  0  0  0  0  0  0  0
   59.3340  156.9820   -1.5229 H   0  0  0  0  0  0  0  0  0  0  0  0
   60.8350  156.4734   -2.3222 H   0  0  0  0  0  0  0  0  0  0  0  0
   60.7082  158.0961   -1.6226 H   0  0  0  0  0  0  0  0  0  0  0  0
   58.6967  153.3200   -7.8532 H   0  0  0  0  0  0  0  0  0  0  0  0
   59.1151  152.8717   -6.1848 H   0  0  0  0  0  0  0  0  0  0  0  0
   59.8248  154.3263   -6.9181 H   0  0  0  0  0  0  0  0  0  0  0  0
   60.4874  158.1861   -4.0924 H   0  0  0  0  0  0  0  0  0  0  0  0
   59.1354  157.0528   -4.0286 H   0  0  0  0  0  0  0  0  0  0  0  0
   57.8139  158.6679   -2.6691 H   0  0  0  0  0  0  0  0  0  0  0  0
   59.1629  159.8011   -2.6724 H   0  0  0  0  0  0  0  0  0  0  0  0
   57.2191  160.1581   -4.3936 H   0  0  0  0  0  0  0  0  0  0  0  0
   52.2659  157.8328   -4.3201 H   0  0  0  0  0  0  0  0  0  0  0  0
   53.1707  159.2943   -4.0297 H   0  0  0  0  0  0  0  0  0  0  0  0
   58.4438  158.3744   -6.2886 H   0  0  0  0  0  0  0  0  0  0  0  0
   57.0979  154.0103   -5.8414 H   0  0  0  0  0  0  0  0  0  0  0  0
  1  4  1  0  0  0  0
  1  6  2  0  0  0  0
  2  3  2  0  0  0  0
  2  7  1  0  0  0  0
  3  8  1  0  0  0  0
  4 10  2  0  0  0  0
  5  8  2  0  0  0  0
  5  9  1  0  0  0  0
  6 21  1  0  0  0  0
  7  9  2  0  0  0  0
  7 11  1  0  0  0  0
  8 17  1  0  0  0  0
  9 18  1  0  0  0  0
 10 16  1  0  0  0  0
 10 21  1  0  0  0  0
 11 19  1  0  0  0  0
 11 20  2  0  0  0  0
 12 14  1  0  0  0  0
 13 19  1  0  0  0  0
 14 15  1  0  0  0  0
 15 16  1  0  0  0  0
 16 18  1  0  0  0  0
  1 22  1  0  0  0  0
  2 23  1  0  0  0  0
  3 24  1  0  0  0  0
  4 25  1  0  0  0  0
  5 26  1  0  0  0  0
  6 27  1  0  0  0  0
 12 28  1  0  0  0  0
 12 29  1  0  0  0  0
 12 30  1  0  0  0  0
 13 31  1  0  0  0  0
 13 32  1  0  0  0  0
 13 33  1  0  0  0  0
 14 34  1  0  0  0  0
 14 35  1  0  0  0  0
 15 36  1  0  0  0  0
 15 37  1  0  0  0  0
 16 38  1  0  0  0  0
 17 39  1  0  0  0  0
 17 40  1  0  0  0  0
 18 41  1  0  0  0  0
 19 42  1  0  0  0  0
M  END
> <FRED Chemgauss4 score>
-6.549786

$$$$
C82161598	P128260631
  -OEChem-05122015083D

 51 53  0     1  0  0  0  0  0999 V2000
   55.1468  152.7267   -8.0721 C   0  0  0  0  0  0  0  0  0  0  0  0
   54.1803  153.6333   -7.6329 C   0  0  0  0  0  0  0  0  0  0  0  0
   56.7283  153.6117   -6.4700 C   0  0  0  0  0  0  0  0  0  0  0  0
   55.7607  154.5190   -6.0306 C   0  0  0  0  0  0  0  0  0  0  0  0
   56.4160  152.7163   -7.4925 C   0  0  0  0  0  0  0  0  0  0  0  0
   54.4768  154.5380   -6.6088 C   0  0  0  0  0  0  0  0  0  0  0  0
   53.8136  156.3404   -5.1535 C   0  0  0  0  0  0  0  0  0  0  0  0
   56.0763  155.4833   -4.9398 C   0  0  0  0  0  0  0  0  0  0  0  0
   54.9926  156.4200   -4.5271 C   0  0  0  0  0  0  0  0  0  0  0  0
   55.1517  157.4299   -3.4621 C   0  0  0  0  0  0  0  0  0  0  0  0
   58.0106  162.5838   -2.4137 C   0  0  0  0  0  0  0  0  0  0  0  0
   57.0525  158.5015   -4.7859 C   0  0  0  0  0  0  0  0  0  0  0  0
   56.3812  159.4283   -2.6712 C   0  0  0  0  0  0  0  0  0  0  0  0
   58.0767  159.5506   -4.3489 C   0  0  2  0  0  0  0  0  0  0  0  0
   57.2606  160.4379   -3.3993 C   0  0  2  0  0  0  0  0  0  0  0  0
   57.4416  151.7439   -7.9696 C   0  0  0  0  0  0  0  0  0  0  0  0
   58.9422  163.1731   -1.4071 C   0  0  0  0  0  0  0  0  0  0  0  0
   60.6014  161.7339   -6.2919 C   0  0  0  0  0  0  0  0  0  0  0  0
   58.6826  160.3091   -5.5187 C   0  0  0  0  0  0  0  0  0  0  0  0
   59.9819  160.9965   -5.1156 C   0  0  0  0  0  0  0  0  0  0  0  0
   53.5222  155.4561   -6.1547 N   0  0  0  0  0  0  0  0  0  0  0  0
   56.1376  158.3790   -3.6512 N   0  0  0  0  0  0  0  0  0  0  0  0
   58.0717  161.2057   -2.4984 N   0  0  0  0  0  0  0  0  0  0  0  0
   57.1787  155.5041   -4.4073 O   0  0  0  0  0  0  0  0  0  0  0  0
   54.4100  157.3786   -2.4815 O   0  0  0  0  0  0  0  0  0  0  0  0
   57.2840  163.3215   -3.0691 O   0  0  0  0  0  0  0  0  0  0  0  0
   54.9017  152.0307   -8.8704 H   0  0  0  0  0  0  0  0  0  0  0  0
   53.1968  153.6276   -8.0962 H   0  0  0  0  0  0  0  0  0  0  0  0
   57.7201  153.5947   -6.0257 H   0  0  0  0  0  0  0  0  0  0  0  0
   52.9747  156.9841   -4.9137 H   0  0  0  0  0  0  0  0  0  0  0  0
   56.5064  158.7619   -5.6953 H   0  0  0  0  0  0  0  0  0  0  0  0
   57.5213  157.5234   -4.9282 H   0  0  0  0  0  0  0  0  0  0  0  0
   56.8459  159.0165   -1.7701 H   0  0  0  0  0  0  0  0  0  0  0  0
   55.4110  159.8633   -2.4081 H   0  0  0  0  0  0  0  0  0  0  0  0
   58.9104  159.0453   -3.8067 H   0  0  0  0  0  0  0  0  0  0  0  0
   56.6368  161.1725   -3.9513 H   0  0  0  0  0  0  0  0  0  0  0  0
   58.0278  152.1784   -8.7884 H   0  0  0  0  0  0  0  0  0  0  0  0
   58.1286  151.4612   -7.1615 H   0  0  0  0  0  0  0  0  0  0  0  0
   56.9751  150.8174   -8.3288 H   0  0  0  0  0  0  0  0  0  0  0  0
   59.9274  163.4151   -1.8370 H   0  0  0  0  0  0  0  0  0  0  0  0
   58.5657  164.1210   -0.9902 H   0  0  0  0  0  0  0  0  0  0  0  0
   59.1556  162.5370   -0.5333 H   0  0  0  0  0  0  0  0  0  0  0  0
   60.8023  161.0494   -7.1222 H   0  0  0  0  0  0  0  0  0  0  0  0
   61.5486  162.1947   -5.9942 H   0  0  0  0  0  0  0  0  0  0  0  0
   59.9371  162.5259   -6.6523 H   0  0  0  0  0  0  0  0  0  0  0  0
   58.8639  159.6065   -6.3366 H   0  0  0  0  0  0  0  0  0  0  0  0
   57.9574  161.0475   -5.8716 H   0  0  0  0  0  0  0  0  0  0  0  0
   59.7937  161.7086   -4.3034 H   0  0  0  0  0  0  0  0  0  0  0  0
   60.6969  160.2560   -4.7382 H   0  0  0  0  0  0  0  0  0  0  0  0
   52.5987  155.4718   -6.5659 H   0  0  0  0  0  0  0  0  0  0  0  0
   58.7222  160.7126   -1.8938 H   0  0  0  0  0  0  0  0  0  0  0  0
  1  2  2  0  0  0  0
  1  5  1  0  0  0  0
  2  6  1  0  0  0  0
  3  4  1  0  0  0  0
  3  5  2  0  0  0  0
  4  6  2  0  0  0  0
  4  8  1  0  0  0  0
  5 16  1  0  0  0  0
  6 21  1  0  0  0  0
  7  9  2  0  0  0  0
  7 21  1  0  0  0  0
  8  9  1  0  0  0  0
  8 24  2  0  0  0  0
  9 10  1  0  0  0  0
 10 22  1  0  0  0  0
 10 25  2  0  0  0  0
 11 17  1  0  0  0  0
 11 23  1  0  0  0  0
 11 26  2  0  0  0  0
 12 14  1  0  0  0  0
 12 22  1  0  0  0  0
 13 15  1  0  0  0  0
 13 22  1  0  0  0  0
 14 15  1  0  0  0  0
 14 19  1  0  0  0  0
 15 23  1  0  0  0  0
 18 20  1  0  0  0  0
 19 20  1  0  0  0  0
  1 27  1  0  0  0  0
  2 28  1  0  0  0  0
  3 29  1  0  0  0  0
  7 30  1  0  0  0  0
 12 31  1  0  0  0  0
 12 32  1  0  0  0  0
 13 33  1  0  0  0  0
 13 34  1  0  0  0  0
 14 35  1  0  0  0  0
 15 36  1  0  0  0  0
 16 37  1  0  0  0  0
 16 38  1  0  0  0  0
 16 39  1  0  0  0  0
 17 40  1  0  0  0  0
 17 41  1  0  0  0  0
 17 42  1  0  0  0  0
 18 43  1  0  0  0  0
 18 44  1  0  0  0  0
 18 45  1  0  0  0  0
 19 46  1  0  0  0  0
 19 47  1  0  0  0  0
 20 48  1  0  0  0  0
 20 49  1  0  0  0  0
 21 50  1  0  0  0  0
 23 51  1  0  0  0  0
M  END
> <FRED Chemgauss4 score>
-6.549467

$$$$
C95393957	P149847473
  -OEChem-05122015083D

 52 54  0     1  0  0  0  0  0999 V2000
   57.1762  160.4157   -3.8458 C   0  0  0  0  0  0  0  0  0  0  0  0
   56.7637  159.2867   -4.5447 C   0  0  0  0  0  0  0  0  0  0  0  0
   58.9857  159.1467   -2.9672 C   0  0  0  0  0  0  0  0  0  0  0  0
   58.3075  160.3527   -3.0398 C   0  0  0  0  0  0  0  0  0  0  0  0
   57.5112  158.1284   -4.4049 C   0  0  0  0  0  0  0  0  0  0  0  0
   56.9590  160.9218    1.5973 C   0  0  0  0  0  0  0  0  0  0  0  0
   57.5102  162.0727    1.1819 C   0  0  0  0  0  0  0  0  0  0  0  0
   57.6734  162.3742   -0.2166 C   0  0  0  0  0  0  0  0  0  0  0  0
   58.0158  163.0855    2.1699 C   0  0  0  0  0  0  0  0  0  0  0  0
   58.1293  162.4721    3.5645 C   0  0  0  0  0  0  0  0  0  0  0  0
   56.2028  154.6899   -6.6193 C   0  0  0  0  0  0  0  0  0  0  0  0
   57.5923  155.2806   -6.8106 C   0  0  0  0  0  0  0  0  0  0  0  0
   55.2248  155.7810   -6.1986 C   0  0  0  0  0  0  0  0  0  0  0  0
   58.0750  156.0137   -5.5616 C   0  0  0  0  0  0  0  0  0  0  0  0
   56.9078  161.6092    3.8534 C   0  0  0  0  0  0  0  0  0  0  0  0
   55.6860  156.5486   -4.9503 C   0  0  1  0  0  0  0  0  0  0  0  0
   58.7736  161.5429   -2.2793 C   0  0  0  0  0  0  0  0  0  0  0  0
   55.5398  155.7108   -3.6755 C   0  0  0  0  0  0  0  0  0  0  0  0
   54.1007  155.6750   -3.2011 C   0  0  0  0  0  0  0  0  0  0  0  0
   58.6154  158.0289   -3.6313 N   0  0  0  0  0  0  0  0  0  0  0  0
   57.0832  157.0004   -5.1156 N   0  0  1  0  0  0  0  0  0  0  0  0
   58.4683  161.4530   -0.8724 N   0  0  0  0  0  0  0  0  0  0  0  0
   57.1347  163.3587   -0.7105 O   0  0  0  0  0  0  0  0  0  0  0  0
   56.7472  160.5508    2.9009 O   0  0  0  0  0  0  0  0  0  0  0  0
   53.6789  157.0084   -2.9502 O   0  0  0  0  0  0  0  0  0  0  0  0
   56.6110  161.3394   -3.9347 H   0  0  0  0  0  0  0  0  0  0  0  0
   55.8817  159.3269   -5.1758 H   0  0  0  0  0  0  0  0  0  0  0  0
   59.8750  159.0368   -2.3543 H   0  0  0  0  0  0  0  0  0  0  0  0
   56.6327  160.1317    0.9338 H   0  0  0  0  0  0  0  0  0  0  0  0
   58.9956  163.4684    1.8626 H   0  0  0  0  0  0  0  0  0  0  0  0
   57.3229  163.9353    2.1925 H   0  0  0  0  0  0  0  0  0  0  0  0
   59.0306  161.8472    3.6073 H   0  0  0  0  0  0  0  0  0  0  0  0
   58.2358  163.2594    4.3181 H   0  0  0  0  0  0  0  0  0  0  0  0
   55.8644  154.2316   -7.5555 H   0  0  0  0  0  0  0  0  0  0  0  0
   56.2334  153.8933   -5.8674 H   0  0  0  0  0  0  0  0  0  0  0  0
   58.3018  154.4870   -7.0703 H   0  0  0  0  0  0  0  0  0  0  0  0
   57.5726  155.9805   -7.6558 H   0  0  0  0  0  0  0  0  0  0  0  0
   55.1208  156.4921   -7.0290 H   0  0  0  0  0  0  0  0  0  0  0  0
   54.2317  155.3466   -6.0346 H   0  0  0  0  0  0  0  0  0  0  0  0
   58.2764  155.2961   -4.7567 H   0  0  0  0  0  0  0  0  0  0  0  0
   59.0244  156.5111   -5.7976 H   0  0  0  0  0  0  0  0  0  0  0  0
   57.0035  161.1482    4.8420 H   0  0  0  0  0  0  0  0  0  0  0  0
   55.9925  162.2140    3.8618 H   0  0  0  0  0  0  0  0  0  0  0  0
   55.0408  157.4281   -4.8493 H   0  0  0  0  0  0  0  0  0  0  0  0
   59.8624  161.6743   -2.3698 H   0  0  0  0  0  0  0  0  0  0  0  0
   58.3137  162.4701   -2.6524 H   0  0  0  0  0  0  0  0  0  0  0  0
   56.1838  156.1267   -2.8982 H   0  0  0  0  0  0  0  0  0  0  0  0
   55.8991  154.6982   -3.8694 H   0  0  0  0  0  0  0  0  0  0  0  0
   53.4445  155.2392   -3.9614 H   0  0  0  0  0  0  0  0  0  0  0  0
   54.0041  155.0990   -2.2752 H   0  0  0  0  0  0  0  0  0  0  0  0
   58.8551  160.6777   -0.3394 H   0  0  0  0  0  0  0  0  0  0  0  0
   52.7573  156.9591   -2.6486 H   0  0  0  0  0  0  0  0  0  0  0  0
  1  2  1  0  0  0  0
  1  4  2  0  0  0  0
  2  5  2  0  0  0  0
  3  4  1  0  0  0  0
  3 20  2  0  0  0  0
  4 17  1  0  0  0  0
  5 20  1  0  0  0  0
  5 21  1  0  0  0  0
  6  7  2  0  0  0  0
  6 24  1  0  0  0  0
  7  8  1  0  0  0  0
  7  9  1  0  0  0  0
  8 22  1  0  0  0  0
  8 23  2  0  0  0  0
  9 10  1  0  0  0  0
 10 15  1  0  0  0  0
 11 12  1  0  0  0  0
 11 13  1  0  0  0  0
 12 14  1  0  0  0  0
 13 16  1  0  0  0  0
 14 21  1  0  0  0  0
 15 24  1  0  0  0  0
 16 18  1  0  0  0  0
 16 21  1  0  0  0  0
 17 22  1  0  0  0  0
 18 19  1  0  0  0  0
 19 25  1  0  0  0  0
  1 26  1  0  0  0  0
  2 27  1  0  0  0  0
  3 28  1  0  0  0  0
  6 29  1  0  0  0  0
  9 30  1  0  0  0  0
  9 31  1  0  0  0  0
 10 32  1  0  0  0  0
 10 33  1  0  0  0  0
 11 34  1  0  0  0  0
 11 35  1  0  0  0  0
 12 36  1  0  0  0  0
 12 37  1  0  0  0  0
 13 38  1  0  0  0  0
 13 39  1  0  0  0  0
 14 40  1  0  0  0  0
 14 41  1  0  0  0  0
 15 42  1  0  0  0  0
 15 43  1  0  0  0  0
 16 44  1  0  0  0  0
 17 45  1  0  0  0  0
 17 46  1  0  0  0  0
 18 47  1  0  0  0  0
 18 48  1  0  0  0  0
 19 49  1  0  0  0  0
 19 50  1  0  0  0  0
 22 51  1  0  0  0  0
 25 52  1  0  0  0  0
M  END
> <FRED Chemgauss4 score>
-6.549369

$$$$
C70286936	P108345849
  -OEChem-05122015083D

 25 25  0     1  0  0  0  0  0999 V2000
   56.3240  157.1861   -5.5826 C   0  0  0  0  0  0  0  0  0  0  0  0
   53.8006  156.3198   -3.3252 C   0  0  0  0  0  0  0  0  0  0  0  0
   56.7142  156.7602   -6.9860 C   0  0  0  0  0  0  0  0  0  0  0  0
   57.0403  155.2861   -7.1408 C   0  0  0  0  0  0  0  0  0  0  0  0
   55.8106  154.7793   -5.0565 C   0  0  0  0  0  0  0  0  0  0  0  0
   55.9115  154.4599   -6.5424 C   0  0  2  0  0  0  0  0  0  0  0  0
   55.2867  156.5729   -3.4330 C   0  0  0  0  0  0  0  0  0  0  0  0
   55.7511  156.2127   -4.7659 N   0  0  0  0  0  0  0  0  0  0  0  0
   53.1525  156.4848   -4.5304 N   0  0  0  0  0  0  0  0  0  0  0  0
   56.1689  153.0348   -6.7297 N   0  0  0  0  0  0  0  0  0  0  0  0
   56.4527  158.3707   -5.2607 O   0  0  0  0  0  0  0  0  0  0  0  0
   53.2393  155.9627   -2.2930 O   0  0  0  0  0  0  0  0  0  0  0  0
   55.8796  157.0279   -7.6454 H   0  0  0  0  0  0  0  0  0  0  0  0
   57.5820  157.3541   -7.2948 H   0  0  0  0  0  0  0  0  0  0  0  0
   57.1745  155.0535   -8.2041 H   0  0  0  0  0  0  0  0  0  0  0  0
   57.9903  155.0619   -6.6383 H   0  0  0  0  0  0  0  0  0  0  0  0
   54.9143  154.3062   -4.6368 H   0  0  0  0  0  0  0  0  0  0  0  0
   56.6795  154.3880   -4.5113 H   0  0  0  0  0  0  0  0  0  0  0  0
   54.9672  154.7164   -7.0390 H   0  0  0  0  0  0  0  0  0  0  0  0
   55.8392  155.9698   -2.7073 H   0  0  0  0  0  0  0  0  0  0  0  0
   55.4898  157.6344   -3.2677 H   0  0  0  0  0  0  0  0  0  0  0  0
   53.6645  156.7470   -5.3662 H   0  0  0  0  0  0  0  0  0  0  0  0
   52.1513  156.3519   -4.6321 H   0  0  0  0  0  0  0  0  0  0  0  0
   56.5997  152.7436   -7.5804 H   0  0  0  0  0  0  0  0  0  0  0  0
   55.7291  152.3927   -6.1064 H   0  0  0  0  0  0  0  0  0  0  0  0
  1  3  1  0  0  0  0
  1  8  1  0  0  0  0
  1 11  2  0  0  0  0
  2  7  1  0  0  0  0
  2  9  1  0  0  0  0
  2 12  2  0  0  0  0
  3  4  1  0  0  0  0
  4  6  1  0  0  0  0
  5  6  1  0  0  0  0
  5  8  1  0  0  0  0
  6 10  1  0  0  0  0
  7  8  1  0  0  0  0
  3 13  1  0  0  0  0
  3 14  1  0  0  0  0
  4 15  1  0  0  0  0
  4 16  1  0  0  0  0
  5 17  1  0  0  0  0
  5 18  1  0  0  0  0
  6 19  1  0  0  0  0
  7 20  1  0  0  0  0
  7 21  1  0  0  0  0
  9 22  1  0  0  0  0
  9 23  1  0  0  0  0
 10 24  1  0  0  0  0
 10 25  1  0  0  0  0
M  END
> <FRED Chemgauss4 score>
-6.547428

$$$$
C87440555	P136788019
  -OEChem-05122015083D

 22 22  0     0  0  0  0  0  0999 V2000
   56.4702  159.1107   -1.5165 C   0  0  0  0  0  0  0  0  0  0  0  0
   55.4732  158.2310   -2.1792 C   0  0  0  0  0  0  0  0  0  0  0  0
   54.4120  157.3799   -5.1834 C   0  0  0  0  0  0  0  0  0  0  0  0
   55.0789  156.6299   -4.0332 C   0  0  0  0  0  0  0  0  0  0  0  0
   53.5010  156.4800   -6.0090 C   0  0  0  0  0  0  0  0  0  0  0  0
   57.7472  159.2176   -1.9304 N   0  5  0  0  0  0  0  0  0  0  0  0
   56.1814  159.8758   -0.4467 N   0  0  0  0  0  0  0  0  0  0  0  0
   58.2938  160.1070   -1.0640 N   0  0  0  0  0  0  0  0  0  0  0  0
   57.3532  160.5025   -0.1726 N   0  0  0  0  0  0  0  0  0  0  0  0
   55.9330  157.5088   -3.2701 N   0  0  0  0  0  0  0  0  0  0  0  0
   52.4096  155.9708   -5.1427 N   0  3  0  0  0  0  0  0  0  0  0  0
   54.3212  158.2032   -1.7543 O   0  0  0  0  0  0  0  0  0  0  0  0
   55.1773  157.8286   -5.8294 H   0  0  0  0  0  0  0  0  0  0  0  0
   53.8239  158.2063   -4.7652 H   0  0  0  0  0  0  0  0  0  0  0  0
   54.3108  156.2234   -3.3673 H   0  0  0  0  0  0  0  0  0  0  0  0
   55.6654  155.7869   -4.4135 H   0  0  0  0  0  0  0  0  0  0  0  0
   53.0224  157.0161   -6.8335 H   0  0  0  0  0  0  0  0  0  0  0  0
   54.0317  155.6054   -6.3965 H   0  0  0  0  0  0  0  0  0  0  0  0
   56.8850  157.6320   -3.6013 H   0  0  0  0  0  0  0  0  0  0  0  0
   51.6934  155.4913   -5.6985 H   0  0  0  0  0  0  0  0  0  0  0  0
   51.9552  156.7385   -4.6364 H   0  0  0  0  0  0  0  0  0  0  0  0
   52.7706  155.3055   -4.4505 H   0  0  0  0  0  0  0  0  0  0  0  0
  1  2  1  0  0  0  0
  1  6  1  0  0  0  0
  1  7  2  0  0  0  0
  2 10  1  0  0  0  0
  2 12  2  0  0  0  0
  3  4  1  0  0  0  0
  3  5  1  0  0  0  0
  4 10  1  0  0  0  0
  5 11  1  0  0  0  0
  6  8  1  0  0  0  0
  7  9  1  0  0  0  0
  8  9  2  0  0  0  0
  3 13  1  0  0  0  0
  3 14  1  0  0  0  0
  4 15  1  0  0  0  0
  4 16  1  0  0  0  0
  5 17  1  0  0  0  0
  5 18  1  0  0  0  0
 10 19  1  0  0  0  0
 11 20  1  0  0  0  0
 11 21  1  0  0  0  0
 11 22  1  0  0  0  0
M  CHG  2   6  -1  11   1
M  END
> <FRED Chemgauss4 score>
-6.544906

$$$$
C84208274	P131759461
  -OEChem-05122015083D

 39 41  0     0  0  0  0  0  0999 V2000
   58.5551  163.0302   -4.2508 C   0  0  0  0  0  0  0  0  0  0  0  0
   57.6453  162.8733   -3.2052 C   0  0  0  0  0  0  0  0  0  0  0  0
   59.2901  161.9356   -4.7060 C   0  0  0  0  0  0  0  0  0  0  0  0
   57.4706  161.6217   -2.6147 C   0  0  0  0  0  0  0  0  0  0  0  0
   56.5254  157.9456   -4.9226 C   0  0  0  0  0  0  0  0  0  0  0  0
   55.6234  157.3875   -5.8345 C   0  0  0  0  0  0  0  0  0  0  0  0
   53.8333  157.4013   -4.1843 C   0  0  0  0  0  0  0  0  0  0  0  0
   59.1155  160.6840   -4.1155 C   0  0  0  0  0  0  0  0  0  0  0  0
   58.2057  160.5271   -3.0699 C   0  0  0  0  0  0  0  0  0  0  0  0
   54.7259  157.9620   -3.2552 C   0  0  0  0  0  0  0  0  0  0  0  0
   56.0378  158.2179   -3.6440 C   0  0  0  0  0  0  0  0  0  0  0  0
   54.3008  157.1194   -5.4741 C   0  0  0  0  0  0  0  0  0  0  0  0
   55.6826  158.7968   -1.5384 C   0  0  0  0  0  0  0  0  0  0  0  0
   55.9804  159.3205   -0.1895 C   0  0  0  0  0  0  0  0  0  0  0  0
   60.2077  159.6336   -6.1130 C   0  0  0  0  0  0  0  0  0  0  0  0
   59.9125  159.5260   -4.6201 C   0  0  0  0  0  0  0  0  0  0  0  0
   58.0006  159.1870   -2.4167 C   0  0  0  0  0  0  0  0  0  0  0  0
   54.5239  158.3281   -1.9443 N   0  0  0  0  0  0  0  0  0  0  0  0
   56.6266  158.7515   -2.5263 N   0  0  0  0  0  0  0  0  0  0  0  0
   53.4197  156.5552   -6.4239 N   0  0  0  0  0  0  0  0  0  0  0  0
   58.6913  164.0050   -4.7097 H   0  0  0  0  0  0  0  0  0  0  0  0
   57.0736  163.7262   -2.8511 H   0  0  0  0  0  0  0  0  0  0  0  0
   59.9976  162.0688   -5.5203 H   0  0  0  0  0  0  0  0  0  0  0  0
   56.7591  161.5094   -1.8009 H   0  0  0  0  0  0  0  0  0  0  0  0
   57.5517  158.1534   -5.2033 H   0  0  0  0  0  0  0  0  0  0  0  0
   55.9704  157.1624   -6.8411 H   0  0  0  0  0  0  0  0  0  0  0  0
   52.8052  157.1934   -3.9029 H   0  0  0  0  0  0  0  0  0  0  0  0
   56.3345  158.5182    0.4775 H   0  0  0  0  0  0  0  0  0  0  0  0
   56.7556  160.1046   -0.2133 H   0  0  0  0  0  0  0  0  0  0  0  0
   55.0943  159.7808    0.2791 H   0  0  0  0  0  0  0  0  0  0  0  0
   59.2818  159.7141   -6.6925 H   0  0  0  0  0  0  0  0  0  0  0  0
   60.7515  158.7509   -6.4637 H   0  0  0  0  0  0  0  0  0  0  0  0
   60.8181  160.5166   -6.3307 H   0  0  0  0  0  0  0  0  0  0  0  0
   60.8623  159.4469   -4.0686 H   0  0  0  0  0  0  0  0  0  0  0  0
   59.3806  158.5820   -4.4240 H   0  0  0  0  0  0  0  0  0  0  0  0
   58.6405  158.4219   -2.8730 H   0  0  0  0  0  0  0  0  0  0  0  0
   58.2657  159.2200   -1.3529 H   0  0  0  0  0  0  0  0  0  0  0  0
   53.7449  156.4000   -7.3552 H   0  0  0  0  0  0  0  0  0  0  0  0
   52.4640  156.4104   -6.1728 H   0  0  0  0  0  0  0  0  0  0  0  0
  1  2  1  0  0  0  0
  1  3  2  0  0  0  0
  2  4  2  0  0  0  0
  3  8  1  0  0  0  0
  4  9  1  0  0  0  0
  5  6  1  0  0  0  0
  5 11  2  0  0  0  0
  6 12  2  0  0  0  0
  7 10  2  0  0  0  0
  7 12  1  0  0  0  0
  8  9  2  0  0  0  0
  8 16  1  0  0  0  0
  9 17  1  0  0  0  0
 10 11  1  0  0  0  0
 10 18  1  0  0  0  0
 11 19  1  0  0  0  0
 12 20  1  0  0  0  0
 13 14  1  0  0  0  0
 13 18  2  0  0  0  0
 13 19  1  0  0  0  0
 15 16  1  0  0  0  0
 17 19  1  0  0  0  0
  1 21  1  0  0  0  0
  2 22  1  0  0  0  0
  3 23  1  0  0  0  0
  4 24  1  0  0  0  0
  5 25  1  0  0  0  0
  6 26  1  0  0  0  0
  7 27  1  0  0  0  0
 14 28  1  0  0  0  0
 14 29  1  0  0  0  0
 14 30  1  0  0  0  0
 15 31  1  0  0  0  0
 15 32  1  0  0  0  0
 15 33  1  0  0  0  0
 16 34  1  0  0  0  0
 16 35  1  0  0  0  0
 17 36  1  0  0  0  0
 17 37  1  0  0  0  0
 20 38  1  0  0  0  0
 20 39  1  0  0  0  0
M  END
> <FRED Chemgauss4 score>
-6.535961

$$$$
C83693351	P130916066
  -OEChem-05122015083D

 31 31  0     1  0  0  0  0  0999 V2000
   56.5594  154.6015   -5.9604 C   0  0  0  0  0  0  0  0  0  0  0  0
   56.9997  153.3830   -6.7630 C   0  0  0  0  0  0  0  0  0  0  0  0
   58.5857  155.5168   -6.9699 C   0  0  0  0  0  0  0  0  0  0  0  0
   57.1143  155.8165   -6.7027 C   0  0  2  0  0  0  0  0  0  0  0  0
   53.9230  157.9310   -4.0811 C   0  0  0  0  0  0  0  0  0  0  0  0
   52.9519  156.8156   -6.1189 C   0  0  0  0  0  0  0  0  0  0  0  0
   54.2143  157.0451   -5.2902 C   0  0  0  0  0  0  0  0  0  0  0  0
   55.2657  157.6579   -6.1220 N   0  0  0  0  0  0  0  0  0  0  0  0
   58.6919  153.5923   -8.7716 O   0  0  0  0  0  0  0  0  0  0  0  0
   59.6075  153.1448   -6.4481 O   0  0  0  0  0  0  0  0  0  0  0  0
   57.0551  156.9929   -4.3755 O   0  0  0  0  0  0  0  0  0  0  0  0
   57.7277  158.3255   -6.4073 O   0  0  0  0  0  0  0  0  0  0  0  0
   52.9213  157.3180   -3.2771 O   0  0  0  0  0  0  0  0  0  0  0  0
   52.4555  158.0673   -6.5796 O   0  0  0  0  0  0  0  0  0  0  0  0
   58.6477  153.7686   -7.3350 S   0  0  0  0  0  0  0  0  0  0  0  0
   56.9030  157.3044   -5.7855 S   0  0  0  0  0  0  0  0  0  0  0  0
   55.4687  154.6531   -5.9561 H   0  0  0  0  0  0  0  0  0  0  0  0
   56.9045  154.5402   -4.9297 H   0  0  0  0  0  0  0  0  0  0  0  0
   57.0597  152.4905   -6.1356 H   0  0  0  0  0  0  0  0  0  0  0  0
   56.3500  153.1913   -7.6185 H   0  0  0  0  0  0  0  0  0  0  0  0
   58.9271  156.0412   -7.8642 H   0  0  0  0  0  0  0  0  0  0  0  0
   59.2429  155.7354   -6.1297 H   0  0  0  0  0  0  0  0  0  0  0  0
   56.5784  155.9772   -7.6433 H   0  0  0  0  0  0  0  0  0  0  0  0
   53.5440  158.9082   -4.3980 H   0  0  0  0  0  0  0  0  0  0  0  0
   54.8184  158.0796   -3.4677 H   0  0  0  0  0  0  0  0  0  0  0  0
   52.1682  156.3258   -5.5307 H   0  0  0  0  0  0  0  0  0  0  0  0
   53.1715  156.2006   -6.9977 H   0  0  0  0  0  0  0  0  0  0  0  0
   54.6289  156.0839   -4.9639 H   0  0  0  0  0  0  0  0  0  0  0  0
   55.0072  157.7613   -7.1119 H   0  0  0  0  0  0  0  0  0  0  0  0
   52.7676  157.9108   -2.5244 H   0  0  0  0  0  0  0  0  0  0  0  0
   51.6580  157.8764   -7.0984 H   0  0  0  0  0  0  0  0  0  0  0  0
  1  2  1  0  0  0  0
  1  4  1  0  0  0  0
  2 15  1  0  0  0  0
  3  4  1  0  0  0  0
  3 15  1  0  0  0  0
  4 16  1  0  0  0  0
  5  7  1  0  0  0  0
  5 13  1  0  0  0  0
  6  7  1  0  0  0  0
  6 14  1  0  0  0  0
  7  8  1  0  0  0  0
  8 16  1  0  0  0  0
  9 15  2  0  0  0  0
 10 15  2  0  0  0  0
 11 16  2  0  0  0  0
 12 16  2  0  0  0  0
  1 17  1  0  0  0  0
  1 18  1  0  0  0  0
  2 19  1  0  0  0  0
  2 20  1  0  0  0  0
  3 21  1  0  0  0  0
  3 22  1  0  0  0  0
  4 23  1  0  0  0  0
  5 24  1  0  0  0  0
  5 25  1  0  0  0  0
  6 26  1  0  0  0  0
  6 27  1  0  0  0  0
  7 28  1  0  0  0  0
  8 29  1  0  0  0  0
 13 30  1  0  0  0  0
 14 31  1  0  0  0  0
M  END
> <FRED Chemgauss4 score>
-6.534124

$$$$
C84444357	P132149567
  -OEChem-05122015083D

 33 33  0     1  0  0  0  0  0999 V2000
   54.5266  162.6011   -6.0468 C   0  0  0  0  0  0  0  0  0  0  0  0
   54.5269  162.5152   -3.8854 C   0  0  0  0  0  0  0  0  0  0  0  0
   55.0013  161.5667   -5.0055 C   0  0  0  0  0  0  0  0  0  0  0  0
   53.7788  163.3665   -4.9338 C   0  0  0  0  0  0  0  0  0  0  0  0
   55.9226  156.6676   -7.0166 C   0  0  0  0  0  0  0  0  0  0  0  0
   56.2040  156.1606   -4.6850 C   0  0  0  0  0  0  0  0  0  0  0  0
   54.1714  157.1845   -5.4550 C   0  0  0  0  0  0  0  0  0  0  0  0
   54.7081  159.2690   -4.1031 C   0  0  0  0  0  0  0  0  0  0  0  0
   53.8281  158.0271   -4.2245 C   0  0  2  0  0  0  0  0  0  0  0  0
   55.6008  157.0910   -5.6477 N   0  0  0  0  0  0  0  0  0  0  0  0
   54.2371  160.3082   -5.0556 N   0  3  0  0  0  0  0  0  0  0  0  0
   52.3915  163.1373   -4.9428 O   0  5  0  0  0  0  0  0  0  0  0  0
   53.9745  157.2025   -3.0689 O   0  0  0  0  0  0  0  0  0  0  0  0
   55.3381  163.1662   -6.5427 H   0  0  0  0  0  0  0  0  0  0  0  0
   53.8909  162.1797   -6.8530 H   0  0  0  0  0  0  0  0  0  0  0  0
   53.8919  162.0304   -3.1149 H   0  0  0  0  0  0  0  0  0  0  0  0
   55.3384  163.0394   -3.3463 H   0  0  0  0  0  0  0  0  0  0  0  0
   56.0882  161.3915   -5.0126 H   0  0  0  0  0  0  0  0  0  0  0  0
   54.0029  164.4432   -4.8909 H   0  0  0  0  0  0  0  0  0  0  0  0
   55.4759  157.3568   -7.7379 H   0  0  0  0  0  0  0  0  0  0  0  0
   55.5336  155.6628   -7.2026 H   0  0  0  0  0  0  0  0  0  0  0  0
   57.0058  156.6570   -7.1642 H   0  0  0  0  0  0  0  0  0  0  0  0
   55.9677  156.4709   -3.6639 H   0  0  0  0  0  0  0  0  0  0  0  0
   57.2906  156.1441   -4.8053 H   0  0  0  0  0  0  0  0  0  0  0  0
   55.8185  155.1499   -4.8438 H   0  0  0  0  0  0  0  0  0  0  0  0
   53.7164  157.6187   -6.3512 H   0  0  0  0  0  0  0  0  0  0  0  0
   53.7756  156.1705   -5.3336 H   0  0  0  0  0  0  0  0  0  0  0  0
   55.7486  159.0613   -4.3683 H   0  0  0  0  0  0  0  0  0  0  0  0
   54.6534  159.7249   -3.1101 H   0  0  0  0  0  0  0  0  0  0  0  0
   52.7711  158.3116   -4.2935 H   0  0  0  0  0  0  0  0  0  0  0  0
   53.2444  160.5095   -4.8718 H   0  0  0  0  0  0  0  0  0  0  0  0
   54.2730  159.9304   -6.0126 H   0  0  0  0  0  0  0  0  0  0  0  0
   53.3570  156.4637   -3.1793 H   0  0  0  0  0  0  0  0  0  0  0  0
  1  3  1  0  0  0  0
  1  4  1  0  0  0  0
  2  3  1  0  0  0  0
  2  4  1  0  0  0  0
  3 11  1  0  0  0  0
  4 12  1  0  0  0  0
  5 10  1  0  0  0  0
  6 10  1  0  0  0  0
  7  9  1  0  0  0  0
  7 10  1  0  0  0  0
  8  9  1  0  0  0  0
  8 11  1  0  0  0  0
  9 13  1  0  0  0  0
  1 14  1  0  0  0  0
  1 15  1  0  0  0  0
  2 16  1  0  0  0  0
  2 17  1  0  0  0  0
  3 18  1  0  0  0  0
  4 19  1  0  0  0  0
  5 20  1  0  0  0  0
  5 21  1  0  0  0  0
  5 22  1  0  0  0  0
  6 23  1  0  0  0  0
  6 24  1  0  0  0  0
  6 25  1  0  0  0  0
  7 26  1  0  0  0  0
  7 27  1  0  0  0  0
  8 28  1  0  0  0  0
  8 29  1  0  0  0  0
  9 30  1  0  0  0  0
 11 31  1  0  0  0  0
 11 32  1  0  0  0  0
 13 33  1  0  0  0  0
M  CHG  2  11   1  12  -1
M  END
> <FRED Chemgauss4 score>
-6.531180

$$$$
C80739801	P126048467
  -OEChem-05122015083D

 33 34  0     1  0  0  0  0  0999 V2000
   58.4773  159.1785   -5.4211 C   0  0  0  0  0  0  0  0  0  0  0  0
   58.3587  157.1744   -6.0353 C   0  0  0  0  0  0  0  0  0  0  0  0
   56.0867  155.6937   -6.6429 C   0  0  0  0  0  0  0  0  0  0  0  0
   55.9287  156.9731   -6.2670 C   0  0  0  0  0  0  0  0  0  0  0  0
   57.4905  155.1865   -6.6973 C   0  0  0  0  0  0  0  0  0  0  0  0
   57.6826  153.7510   -7.1193 C   0  0  0  0  0  0  0  0  0  0  0  0
   54.1747  155.5305   -2.3520 C   0  0  0  0  0  0  0  0  0  0  0  0
   53.5078  156.8565   -6.0378 C   0  0  0  0  0  0  0  0  0  0  0  0
   53.5352  155.9005   -4.8336 C   0  0  1  0  0  0  0  0  0  0  0  0
   54.1604  156.4813   -3.5439 C   0  0  1  0  0  0  0  0  0  0  0  0
   59.2421  158.0915   -5.6958 N   0  0  0  0  0  0  0  0  0  0  0  0
   57.1653  159.0159   -5.5621 N   0  0  0  0  0  0  0  0  0  0  0  0
   58.5532  155.8800   -6.4132 N   0  0  0  0  0  0  0  0  0  0  0  0
   57.0733  157.7200   -5.9604 N   0  0  0  0  0  0  0  0  0  0  0  0
   52.1613  155.4678   -4.5566 N   0  0  0  0  0  0  0  0  0  0  0  0
   54.7507  157.5809   -6.1663 N   0  0  0  0  0  0  0  0  0  0  0  0
   53.4685  157.6646   -3.1465 O   0  0  0  0  0  0  0  0  0  0  0  0
   58.8886  160.1257   -5.1061 H   0  0  0  0  0  0  0  0  0  0  0  0
   55.2621  155.0409   -6.8987 H   0  0  0  0  0  0  0  0  0  0  0  0
   57.7971  153.7109   -8.1973 H   0  0  0  0  0  0  0  0  0  0  0  0
   56.8157  153.1730   -6.8162 H   0  0  0  0  0  0  0  0  0  0  0  0
   58.5702  153.3554   -6.6365 H   0  0  0  0  0  0  0  0  0  0  0  0
   53.1700  155.1871   -2.0897 H   0  0  0  0  0  0  0  0  0  0  0  0
   54.7864  154.6510   -2.5834 H   0  0  0  0  0  0  0  0  0  0  0  0
   54.6345  155.9949   -1.4736 H   0  0  0  0  0  0  0  0  0  0  0  0
   52.6779  157.5676   -5.9715 H   0  0  0  0  0  0  0  0  0  0  0  0
   53.3589  156.2844   -6.9617 H   0  0  0  0  0  0  0  0  0  0  0  0
   54.1182  155.0157   -5.1221 H   0  0  0  0  0  0  0  0  0  0  0  0
   55.1946  156.7844   -3.7509 H   0  0  0  0  0  0  0  0  0  0  0  0
   51.9651  155.1005   -3.6542 H   0  0  0  0  0  0  0  0  0  0  0  0
   51.5432  155.3685   -5.3287 H   0  0  0  0  0  0  0  0  0  0  0  0
   54.7399  158.6006   -6.1812 H   0  0  0  0  0  0  0  0  0  0  0  0
   53.9626  158.0331   -2.3986 H   0  0  0  0  0  0  0  0  0  0  0  0
  1 11  1  0  0  0  0
  1 12  2  0  0  0  0
  2 11  2  0  0  0  0
  2 13  1  0  0  0  0
  2 14  1  0  0  0  0
  3  4  2  0  0  0  0
  3  5  1  0  0  0  0
  4 14  1  0  0  0  0
  4 16  1  0  0  0  0
  5  6  1  0  0  0  0
  5 13  2  0  0  0  0
  7 10  1  0  0  0  0
  8  9  1  0  0  0  0
  8 16  1  0  0  0  0
  9 10  1  0  0  0  0
  9 15  1  0  0  0  0
 10 17  1  0  0  0  0
 12 14  1  0  0  0  0
  1 18  1  0  0  0  0
  3 19  1  0  0  0  0
  6 20  1  0  0  0  0
  6 21  1  0  0  0  0
  6 22  1  0  0  0  0
  7 23  1  0  0  0  0
  7 24  1  0  0  0  0
  7 25  1  0  0  0  0
  8 26  1  0  0  0  0
  8 27  1  0  0  0  0
  9 28  1  0  0  0  0
 10 29  1  0  0  0  0
 15 30  1  0  0  0  0
 15 31  1  0  0  0  0
 16 32  1  0  0  0  0
 17 33  1  0  0  0  0
M  END
> <FRED Chemgauss4 score>
-6.527742

$$$$
C83272026	P130167815
  -OEChem-05122015083D

 20 20  0     1  0  0  0  0  0999 V2000
   56.4115  156.3681   -5.3319 C   0  0  0  0  0  0  0  0  0  0  0  0
   57.5042  155.7160   -5.8922 C   0  0  0  0  0  0  0  0  0  0  0  0
   55.0317  154.5748   -6.0642 C   0  0  0  0  0  0  0  0  0  0  0  0
   55.1482  155.7934   -5.4151 C   0  0  0  0  0  0  0  0  0  0  0  0
   57.2822  154.5008   -6.5198 C   0  0  0  0  0  0  0  0  0  0  0  0
   53.2436  155.6203   -3.7544 C   0  0  0  0  0  0  0  0  0  0  0  0
   53.9598  156.4658   -4.8255 C   0  0  2  0  0  0  0  0  0  0  0  0
   56.0698  153.9113   -6.6207 N   0  0  0  0  0  0  0  0  0  0  0  0
   52.9903  156.8523   -5.8419 N   0  0  0  0  0  0  0  0  0  0  0  0
   54.1253  155.3584   -2.6673 O   0  0  0  0  0  0  0  0  0  0  0  0
   58.5705  153.6256   -7.2389 Cl  0  0  0  0  0  0  0  0  0  0  0  0
   56.5534  157.3228   -4.8330 H   0  0  0  0  0  0  0  0  0  0  0  0
   58.4938  156.1568   -5.8325 H   0  0  0  0  0  0  0  0  0  0  0  0
   54.0712  154.0774   -6.1600 H   0  0  0  0  0  0  0  0  0  0  0  0
   52.3793  156.1633   -3.3565 H   0  0  0  0  0  0  0  0  0  0  0  0
   52.9004  154.6612   -4.1574 H   0  0  0  0  0  0  0  0  0  0  0  0
   54.2473  157.4233   -4.3515 H   0  0  0  0  0  0  0  0  0  0  0  0
   53.3322  157.1697   -6.7248 H   0  0  0  0  0  0  0  0  0  0  0  0
   52.0401  156.9825   -5.5632 H   0  0  0  0  0  0  0  0  0  0  0  0
   53.6264  154.8269   -2.0273 H   0  0  0  0  0  0  0  0  0  0  0  0
  1  2  1  0  0  0  0
  1  4  2  0  0  0  0
  2  5  2  0  0  0  0
  3  4  1  0  0  0  0
  3  8  2  0  0  0  0
  4  7  1  0  0  0  0
  5  8  1  0  0  0  0
  5 11  1  0  0  0  0
  6  7  1  0  0  0  0
  6 10  1  0  0  0  0
  7  9  1  0  0  0  0
  1 12  1  0  0  0  0
  2 13  1  0  0  0  0
  3 14  1  0  0  0  0
  6 15  1  0  0  0  0
  6 16  1  0  0  0  0
  7 17  1  0  0  0  0
  9 18  1  0  0  0  0
  9 19  1  0  0  0  0
 10 20  1  0  0  0  0
M  END
> <FRED Chemgauss4 score>
-6.526749

$$$$
C88490101	P138409497
  -OEChem-05122015083D

 32 32  0     1  0  0  0  0  0999 V2000
   55.1007  158.3104   -2.6966 C   0  0  0  0  0  0  0  0  0  0  0  0
   54.7957  157.4681   -4.5820 C   0  0  0  0  0  0  0  0  0  0  0  0
   59.0932  155.4822   -8.4379 C   0  0  0  0  0  0  0  0  0  0  0  0
   55.7879  158.9278   -1.5562 C   0  0  0  0  0  0  0  0  0  0  0  0
   57.9905  153.5870   -7.1812 C   0  0  0  0  0  0  0  0  0  0  0  0
   55.5246  154.7111   -5.0728 C   0  0  0  0  0  0  0  0  0  0  0  0
   54.8931  156.9152   -5.9744 C   0  0  0  0  0  0  0  0  0  0  0  0
   57.8561  155.0154   -7.6913 C   0  0  1  0  0  0  0  0  0  0  0  0
   55.7568  157.9774   -3.8469 N   0  0  0  0  0  0  0  0  0  0  0  0
   53.7940  158.0391   -2.6737 N   0  0  0  0  0  0  0  0  0  0  0  0
   53.6247  157.5012   -3.8911 N   0  0  0  0  0  0  0  0  0  0  0  0
   60.2716  155.4703   -7.7416 N   0  0  0  0  0  0  0  0  0  0  0  0
   55.8428  155.7775   -6.0551 N   0  0  1  0  0  0  0  0  0  0  0  0
   57.6174  157.4819   -6.8663 O   0  0  0  0  0  0  0  0  0  0  0  0
   58.2917  155.7111   -5.2117 O   0  0  0  0  0  0  0  0  0  0  0  0
   59.0267  155.9880  -10.0322 S   0  0  0  0  0  0  0  0  0  0  0  0
   57.4978  156.1310   -6.3510 S   0  0  0  0  0  0  0  0  0  0  0  0
   55.7776  160.0310   -1.6251 H   0  0  0  0  0  0  0  0  0  0  0  0
   55.3271  158.6554   -0.5877 H   0  0  0  0  0  0  0  0  0  0  0  0
   56.8464  158.6137   -1.4807 H   0  0  0  0  0  0  0  0  0  0  0  0
   58.8572  153.4882   -6.5194 H   0  0  0  0  0  0  0  0  0  0  0  0
   57.1043  153.2648   -6.6241 H   0  0  0  0  0  0  0  0  0  0  0  0
   58.1181  152.8903   -8.0167 H   0  0  0  0  0  0  0  0  0  0  0  0
   56.2431  153.8921   -5.1615 H   0  0  0  0  0  0  0  0  0  0  0  0
   54.5199  154.3189   -5.2529 H   0  0  0  0  0  0  0  0  0  0  0  0
   55.5682  155.1090   -4.0555 H   0  0  0  0  0  0  0  0  0  0  0  0
   53.9148  156.5630   -6.3192 H   0  0  0  0  0  0  0  0  0  0  0  0
   55.2294  157.6827   -6.6794 H   0  0  0  0  0  0  0  0  0  0  0  0
   56.9791  155.0689   -8.3476 H   0  0  0  0  0  0  0  0  0  0  0  0
   52.7022  157.1881   -4.1700 H   0  0  0  0  0  0  0  0  0  0  0  0
   60.3317  155.1737   -6.7733 H   0  0  0  0  0  0  0  0  0  0  0  0
   61.1366  155.7746   -8.1760 H   0  0  0  0  0  0  0  0  0  0  0  0
  1  4  1  0  0  0  0
  1  9  1  0  0  0  0
  1 10  2  0  0  0  0
  2  7  1  0  0  0  0
  2  9  2  0  0  0  0
  2 11  1  0  0  0  0
  3  8  1  0  0  0  0
  3 12  1  0  0  0  0
  3 16  2  0  0  0  0
  5  8  1  0  0  0  0
  6 13  1  0  0  0  0
  7 13  1  0  0  0  0
  8 17  1  0  0  0  0
 10 11  1  0  0  0  0
 13 17  1  0  0  0  0
 14 17  2  0  0  0  0
 15 17  2  0  0  0  0
  4 18  1  0  0  0  0
  4 19  1  0  0  0  0
  4 20  1  0  0  0  0
  5 21  1  0  0  0  0
  5 22  1  0  0  0  0
  5 23  1  0  0  0  0
  6 24  1  0  0  0  0
  6 25  1  0  0  0  0
  6 26  1  0  0  0  0
  7 27  1  0  0  0  0
  7 28  1  0  0  0  0
  8 29  1  0  0  0  0
 11 30  1  0  0  0  0
 12 31  1  0  0  0  0
 12 32  1  0  0  0  0
M  END
> <FRED Chemgauss4 score>
-6.517705

$$$$
C50499210	P75511884
  -OEChem-05122015083D

 40 40  0     1  0  0  0  0  0999 V2000
   62.0062  163.8393   -5.2366 C   0  0  0  0  0  0  0  0  0  0  0  0
   56.3623  155.4416   -6.3325 C   0  0  0  0  0  0  0  0  0  0  0  0
   57.6507  156.1687   -6.6963 C   0  0  0  0  0  0  0  0  0  0  0  0
   56.0942  155.5544   -4.8347 C   0  0  0  0  0  0  0  0  0  0  0  0
   57.6612  157.6025   -6.1661 C   0  0  0  0  0  0  0  0  0  0  0  0
   56.1256  157.0124   -4.3377 C   0  0  2  0  0  0  0  0  0  0  0  0
   60.8226  163.2810   -4.4681 C   0  0  0  0  0  0  0  0  0  0  0  0
   54.8648  157.7715   -4.7799 C   0  0  0  0  0  0  0  0  0  0  0  0
   57.5609  158.9928   -4.1958 C   0  0  0  0  0  0  0  0  0  0  0  0
   60.4900  161.8426   -4.8268 C   0  0  0  0  0  0  0  0  0  0  0  0
   58.9368  159.5629   -4.4824 C   0  0  0  0  0  0  0  0  0  0  0  0
   57.4046  157.6397   -4.7221 N   0  0  2  0  0  0  0  0  0  0  0  0
   62.2857  165.1445   -4.8919 N   0  0  0  0  0  0  0  0  0  0  0  0
   62.6567  163.1986   -6.0570 O   0  0  0  0  0  0  0  0  0  0  0  0
   57.9367  161.9695   -4.2814 O   0  0  0  0  0  0  0  0  0  0  0  0
   59.5255  161.1568   -2.4962 O   0  0  0  0  0  0  0  0  0  0  0  0
   53.7394  157.1076   -4.2426 O   0  0  0  0  0  0  0  0  0  0  0  0
   59.1154  161.2161   -3.8887 S   0  0  0  0  0  0  0  0  0  0  0  0
   55.5219  155.8611   -6.8968 H   0  0  0  0  0  0  0  0  0  0  0  0
   56.4436  154.3841   -6.6126 H   0  0  0  0  0  0  0  0  0  0  0  0
   58.5117  155.6184   -6.2926 H   0  0  0  0  0  0  0  0  0  0  0  0
   57.7698  156.1796   -7.7900 H   0  0  0  0  0  0  0  0  0  0  0  0
   55.1155  155.1030   -4.6106 H   0  0  0  0  0  0  0  0  0  0  0  0
   56.8427  154.9563   -4.2956 H   0  0  0  0  0  0  0  0  0  0  0  0
   58.6222  158.0740   -6.4049 H   0  0  0  0  0  0  0  0  0  0  0  0
   56.8822  158.1589   -6.6992 H   0  0  0  0  0  0  0  0  0  0  0  0
   56.0975  156.9653   -3.2076 H   0  0  0  0  0  0  0  0  0  0  0  0
   61.0806  163.3325   -3.4035 H   0  0  0  0  0  0  0  0  0  0  0  0
   59.9536  163.9289   -4.6331 H   0  0  0  0  0  0  0  0  0  0  0  0
   54.8056  157.7741   -5.8650 H   0  0  0  0  0  0  0  0  0  0  0  0
   54.9043  158.7900   -4.4034 H   0  0  0  0  0  0  0  0  0  0  0  0
   57.3577  158.9547   -3.1211 H   0  0  0  0  0  0  0  0  0  0  0  0
   56.7918  159.6094   -4.6707 H   0  0  0  0  0  0  0  0  0  0  0  0
   60.2398  161.7253   -5.8851 H   0  0  0  0  0  0  0  0  0  0  0  0
   61.3370  161.1897   -4.5945 H   0  0  0  0  0  0  0  0  0  0  0  0
   59.1147  159.6044   -5.5611 H   0  0  0  0  0  0  0  0  0  0  0  0
   59.7283  158.9680   -4.0167 H   0  0  0  0  0  0  0  0  0  0  0  0
   61.7161  165.6102   -4.1927 H   0  0  0  0  0  0  0  0  0  0  0  0
   63.0526  165.6460   -5.3272 H   0  0  0  0  0  0  0  0  0  0  0  0
   52.9499  157.5987   -4.5305 H   0  0  0  0  0  0  0  0  0  0  0  0
  1  7  1  0  0  0  0
  1 13  1  0  0  0  0
  1 14  2  0  0  0  0
  2  3  1  0  0  0  0
  2  4  1  0  0  0  0
  3  5  1  0  0  0  0
  4  6  1  0  0  0  0
  5 12  1  0  0  0  0
  6  8  1  0  0  0  0
  6 12  1  0  0  0  0
  7 10  1  0  0  0  0
  8 17  1  0  0  0  0
  9 11  1  0  0  0  0
  9 12  1  0  0  0  0
 10 18  1  0  0  0  0
 11 18  1  0  0  0  0
 15 18  2  0  0  0  0
 16 18  2  0  0  0  0
  2 19  1  0  0  0  0
  2 20  1  0  0  0  0
  3 21  1  0  0  0  0
  3 22  1  0  0  0  0
  4 23  1  0  0  0  0
  4 24  1  0  0  0  0
  5 25  1  0  0  0  0
  5 26  1  0  0  0  0
  6 27  1  0  0  0  0
  7 28  1  0  0  0  0
  7 29  1  0  0  0  0
  8 30  1  0  0  0  0
  8 31  1  0  0  0  0
  9 32  1  0  0  0  0
  9 33  1  0  0  0  0
 10 34  1  0  0  0  0
 10 35  1  0  0  0  0
 11 36  1  0  0  0  0
 11 37  1  0  0  0  0
 13 38  1  0  0  0  0
 13 39  1  0  0  0  0
 17 40  1  0  0  0  0
M  END
> <FRED Chemgauss4 score>
-6.511580

$$$$
C42805961	P64708179
  -OEChem-05122015083D

 37 37  0     0  0  0  0  0  0999 V2000
   53.9478  157.2368   -4.3997 C   0  0  0  0  0  0  0  0  0  0  0  0
   56.3130  156.7480   -4.3375 C   0  0  0  0  0  0  0  0  0  0  0  0
   54.9823  156.0392   -6.2253 C   0  0  0  0  0  0  0  0  0  0  0  0
   55.1798  157.3102   -3.7497 C   0  0  0  0  0  0  0  0  0  0  0  0
   53.8490  156.6013   -5.6375 C   0  0  0  0  0  0  0  0  0  0  0  0
   56.2142  156.1125   -5.5753 C   0  0  0  0  0  0  0  0  0  0  0  0
   55.2820  157.9731   -2.4595 C   0  0  0  0  0  0  0  0  0  0  0  0
   56.8559  162.4631   -2.6521 C   0  0  0  0  0  0  0  0  0  0  0  0
   57.8345  162.9748   -3.6564 C   0  0  0  0  0  0  0  0  0  0  0  0
   58.3203  156.7245   -7.2911 C   0  0  0  0  0  0  0  0  0  0  0  0
   56.7887  159.1989   -0.8744 C   0  0  0  0  0  0  0  0  0  0  0  0
   56.4983  160.6885   -0.9475 C   0  0  0  0  0  0  0  0  0  0  0  0
   52.6033  156.5273   -6.2949 N   0  0  0  0  0  0  0  0  0  0  0  0
   56.5229  158.5292   -2.1272 N   0  0  0  0  0  0  0  0  0  0  0  0
   57.2837  161.3413   -1.9597 N   0  0  0  0  0  0  0  0  0  0  0  0
   54.3043  158.0146   -1.6916 O   0  0  0  0  0  0  0  0  0  0  0  0
   55.7840  163.0385   -2.5054 O   0  0  0  0  0  0  0  0  0  0  0  0
   58.5805  155.0974   -5.2516 O   0  0  0  0  0  0  0  0  0  0  0  0
   57.2146  154.3647   -7.2373 O   0  0  0  0  0  0  0  0  0  0  0  0
   57.6322  155.4089   -6.3116 S   0  0  0  0  0  0  0  0  0  0  0  0
   53.0634  157.6745   -3.9417 H   0  0  0  0  0  0  0  0  0  0  0  0
   57.2735  156.8048   -3.8307 H   0  0  0  0  0  0  0  0  0  0  0  0
   54.9045  155.5432   -7.1901 H   0  0  0  0  0  0  0  0  0  0  0  0
   57.6932  162.5210   -4.6505 H   0  0  0  0  0  0  0  0  0  0  0  0
   57.7433  164.0612   -3.8167 H   0  0  0  0  0  0  0  0  0  0  0  0
   58.8950  162.8067   -3.4092 H   0  0  0  0  0  0  0  0  0  0  0  0
   59.2189  156.3521   -7.7853 H   0  0  0  0  0  0  0  0  0  0  0  0
   57.5767  157.0296   -8.0288 H   0  0  0  0  0  0  0  0  0  0  0  0
   58.5650  157.5556   -6.6280 H   0  0  0  0  0  0  0  0  0  0  0  0
   56.1799  158.7105   -0.1069 H   0  0  0  0  0  0  0  0  0  0  0  0
   57.8446  159.0329   -0.6393 H   0  0  0  0  0  0  0  0  0  0  0  0
   55.4465  160.8575   -1.1982 H   0  0  0  0  0  0  0  0  0  0  0  0
   56.7120  161.1837    0.0052 H   0  0  0  0  0  0  0  0  0  0  0  0
   51.7902  156.8925   -5.8418 H   0  0  0  0  0  0  0  0  0  0  0  0
   52.5369  156.0282   -7.1588 H   0  0  0  0  0  0  0  0  0  0  0  0
   57.3051  158.4122   -2.7630 H   0  0  0  0  0  0  0  0  0  0  0  0
   58.2026  160.9594   -2.1792 H   0  0  0  0  0  0  0  0  0  0  0  0
  1  4  1  0  0  0  0
  1  5  2  0  0  0  0
  2  4  2  0  0  0  0
  2  6  1  0  0  0  0
  3  5  1  0  0  0  0
  3  6  2  0  0  0  0
  4  7  1  0  0  0  0
  5 13  1  0  0  0  0
  6 20  1  0  0  0  0
  7 14  1  0  0  0  0
  7 16  2  0  0  0  0
  8  9  1  0  0  0  0
  8 15  1  0  0  0  0
  8 17  2  0  0  0  0
 10 20  1  0  0  0  0
 11 12  1  0  0  0  0
 11 14  1  0  0  0  0
 12 15  1  0  0  0  0
 18 20  2  0  0  0  0
 19 20  2  0  0  0  0
  1 21  1  0  0  0  0
  2 22  1  0  0  0  0
  3 23  1  0  0  0  0
  9 24  1  0  0  0  0
  9 25  1  0  0  0  0
  9 26  1  0  0  0  0
 10 27  1  0  0  0  0
 10 28  1  0  0  0  0
 10 29  1  0  0  0  0
 11 30  1  0  0  0  0
 11 31  1  0  0  0  0
 12 32  1  0  0  0  0
 12 33  1  0  0  0  0
 13 34  1  0  0  0  0
 13 35  1  0  0  0  0
 14 36  1  0  0  0  0
 15 37  1  0  0  0  0
M  END
> <FRED Chemgauss4 score>
-6.511076

$$$$
C04544521	P06219506
  -OEChem-05122015083D

 23 22  0     1  0  0  0  0  0999 V2000
   53.6428  155.8845   -3.4507 C   0  0  0  0  0  0  0  0  0  0  0  0
   56.0635  154.9578   -6.2944 C   0  0  0  0  0  0  0  0  0  0  0  0
   53.3180  155.8583   -4.9320 C   0  0  2  0  0  0  0  0  0  0  0  0
   56.2645  156.4594   -6.4600 C   0  0  1  0  0  0  0  0  0  0  0  0
   53.8833  157.1068   -5.6175 C   0  0  2  0  0  0  0  0  0  0  0  0
   55.4121  157.2695   -5.4674 C   0  0  2  0  0  0  0  0  0  0  0  0
   52.9345  156.4085   -2.5965 O   0  0  0  0  0  0  0  0  0  0  0  0
   51.9101  155.8131   -5.0749 O   0  0  0  0  0  0  0  0  0  0  0  0
   57.6480  156.7418   -6.2596 O   0  0  0  0  0  0  0  0  0  0  0  0
   53.2150  158.2517   -5.0852 O   0  0  0  0  0  0  0  0  0  0  0  0
   55.7348  158.6567   -5.6079 O   0  0  0  0  0  0  0  0  0  0  0  0
   55.9389  154.6859   -4.9649 F   0  0  0  0  0  0  0  0  0  0  0  0
   54.6027  155.4190   -3.1676 H   0  0  0  0  0  0  0  0  0  0  0  0
   55.1489  154.6069   -6.7814 H   0  0  0  0  0  0  0  0  0  0  0  0
   56.9205  154.3898   -6.6669 H   0  0  0  0  0  0  0  0  0  0  0  0
   53.7566  154.9441   -5.3472 H   0  0  0  0  0  0  0  0  0  0  0  0
   56.0201  156.7435   -7.4890 H   0  0  0  0  0  0  0  0  0  0  0  0
   53.6430  157.0783   -6.6884 H   0  0  0  0  0  0  0  0  0  0  0  0
   55.7034  156.9851   -4.4489 H   0  0  0  0  0  0  0  0  0  0  0  0
   51.6041  155.0029   -4.6325 H   0  0  0  0  0  0  0  0  0  0  0  0
   57.8610  156.4496   -5.3600 H   0  0  0  0  0  0  0  0  0  0  0  0
   53.3964  158.2556   -4.1335 H   0  0  0  0  0  0  0  0  0  0  0  0
   55.1806  159.1291   -4.9701 H   0  0  0  0  0  0  0  0  0  0  0  0
  1  3  1  0  0  0  0
  1  7  2  0  0  0  0
  2  4  1  0  0  0  0
  2 12  1  0  0  0  0
  3  5  1  0  0  0  0
  3  8  1  0  0  0  0
  4  6  1  0  0  0  0
  4  9  1  0  0  0  0
  5  6  1  0  0  0  0
  5 10  1  0  0  0  0
  6 11  1  0  0  0  0
  1 13  1  0  0  0  0
  2 14  1  0  0  0  0
  2 15  1  0  0  0  0
  3 16  1  0  0  0  0
  4 17  1  0  0  0  0
  5 18  1  0  0  0  0
  6 19  1  0  0  0  0
  8 20  1  0  0  0  0
  9 21  1  0  0  0  0
 10 22  1  0  0  0  0
 11 23  1  0  0  0  0
M  END
> <FRED Chemgauss4 score>
-6.510118

$$$$
C85253424	P133383802
  -OEChem-05122015083D

 26 26  0     1  0  0  0  0  0999 V2000
   56.1548  154.7440   -5.2864 C   0  0  0  0  0  0  0  0  0  0  0  0
   56.5893  156.9918   -5.0210 C   0  0  0  0  0  0  0  0  0  0  0  0
   56.9630  155.1331   -6.4907 C   0  0  0  0  0  0  0  0  0  0  0  0
   57.2520  156.6144   -6.3142 C   0  0  0  0  0  0  0  0  0  0  0  0
   53.7392  157.6533   -4.1095 C   0  0  0  0  0  0  0  0  0  0  0  0
   55.2628  155.8662   -3.2496 C   0  0  0  0  0  0  0  0  0  0  0  0
   53.0038  155.2527   -4.3150 C   0  0  0  0  0  0  0  0  0  0  0  0
   53.7915  156.2621   -3.4666 C   0  0  2  0  0  0  0  0  0  0  0  0
   55.9955  155.8628   -4.4960 N   0  0  0  0  0  0  0  0  0  0  0  0
   55.7286  153.6149   -5.0865 O   0  0  0  0  0  0  0  0  0  0  0  0
   56.5979  158.1215   -4.5519 O   0  0  0  0  0  0  0  0  0  0  0  0
   53.2421  155.4562   -5.6990 O   0  0  0  0  0  0  0  0  0  0  0  0
   53.1481  156.3749   -2.1939 O   0  0  0  0  0  0  0  0  0  0  0  0
   57.8862  154.5471   -6.5215 H   0  0  0  0  0  0  0  0  0  0  0  0
   56.3844  154.9454   -7.4000 H   0  0  0  0  0  0  0  0  0  0  0  0
   56.8285  157.2038   -7.1327 H   0  0  0  0  0  0  0  0  0  0  0  0
   58.3270  156.8062   -6.2481 H   0  0  0  0  0  0  0  0  0  0  0  0
   52.7020  157.9658   -4.2779 H   0  0  0  0  0  0  0  0  0  0  0  0
   54.2330  158.4095   -3.4907 H   0  0  0  0  0  0  0  0  0  0  0  0
   54.2206  157.6453   -5.0944 H   0  0  0  0  0  0  0  0  0  0  0  0
   55.3391  154.8746   -2.7905 H   0  0  0  0  0  0  0  0  0  0  0  0
   55.7495  156.5821   -2.5775 H   0  0  0  0  0  0  0  0  0  0  0  0
   51.9273  155.3313   -4.1261 H   0  0  0  0  0  0  0  0  0  0  0  0
   53.2918  154.2273   -4.0548 H   0  0  0  0  0  0  0  0  0  0  0  0
   52.7190  154.7911   -6.1764 H   0  0  0  0  0  0  0  0  0  0  0  0
   53.6533  157.0311   -1.6923 H   0  0  0  0  0  0  0  0  0  0  0  0
  1  3  1  0  0  0  0
  1  9  1  0  0  0  0
  1 10  2  0  0  0  0
  2  4  1  0  0  0  0
  2  9  1  0  0  0  0
  2 11  2  0  0  0  0
  3  4  1  0  0  0  0
  5  8  1  0  0  0  0
  6  8  1  0  0  0  0
  6  9  1  0  0  0  0
  7  8  1  0  0  0  0
  7 12  1  0  0  0  0
  8 13  1  0  0  0  0
  3 14  1  0  0  0  0
  3 15  1  0  0  0  0
  4 16  1  0  0  0  0
  4 17  1  0  0  0  0
  5 18  1  0  0  0  0
  5 19  1  0  0  0  0
  5 20  1  0  0  0  0
  6 21  1  0  0  0  0
  6 22  1  0  0  0  0
  7 23  1  0  0  0  0
  7 24  1  0  0  0  0
 12 25  1  0  0  0  0
 13 26  1  0  0  0  0
M  END
> <FRED Chemgauss4 score>
-6.507178

$$$$
C97753120	P155083024
  -OEChem-05122015083D

 40 42  0     1  0  0  0  0  0999 V2000
   58.6906  153.7486   -7.5359 C   0  0  0  0  0  0  0  0  0  0  0  0
   59.9018  154.4388   -7.6130 C   0  0  0  0  0  0  0  0  0  0  0  0
   57.6619  154.1907   -6.6945 C   0  0  0  0  0  0  0  0  0  0  0  0
   54.8834  159.2997   -5.2206 C   0  0  0  0  0  0  0  0  0  0  0  0
   60.1279  155.5920   -6.8544 C   0  0  0  0  0  0  0  0  0  0  0  0
   54.8435  160.5424   -4.5981 C   0  0  0  0  0  0  0  0  0  0  0  0
   54.3617  158.2936   -3.1296 C   0  0  0  0  0  0  0  0  0  0  0  0
   57.8738  155.3477   -5.9263 C   0  0  0  0  0  0  0  0  0  0  0  0
   54.6391  158.1490   -4.4794 C   0  0  0  0  0  0  0  0  0  0  0  0
   59.0894  156.0158   -6.0222 C   0  0  0  0  0  0  0  0  0  0  0  0
   54.5568  160.5799   -3.2431 C   0  0  0  0  0  0  0  0  0  0  0  0
   57.1329  156.1021   -4.9913 C   0  0  0  0  0  0  0  0  0  0  0  0
   54.5054  161.8966   -2.5426 C   0  0  0  0  0  0  0  0  0  0  0  0
   59.9920  158.0828   -4.9109 C   0  0  0  0  0  0  0  0  0  0  0  0
   55.7639  155.8459   -4.5094 C   0  0  0  0  0  0  0  0  0  0  0  0
   54.6755  156.7764   -5.1296 C   0  0  1  0  0  0  0  0  0  0  0  0
   54.3141  159.4837   -2.4901 N   0  0  0  0  0  0  0  0  0  0  0  0
   57.8056  157.1576   -4.5272 N   0  0  0  0  0  0  0  0  0  0  0  0
   58.9841  157.0799   -5.1676 N   0  0  0  0  0  0  0  0  0  0  0  0
   52.5723  156.6671   -6.1447 N   0  0  0  0  0  0  0  0  0  0  0  0
   53.3538  156.1369   -5.0792 N   0  0  0  0  0  0  0  0  0  0  0  0
   58.5425  152.8561   -8.1381 H   0  0  0  0  0  0  0  0  0  0  0  0
   60.6845  154.0742   -8.2738 H   0  0  0  0  0  0  0  0  0  0  0  0
   56.7247  153.6447   -6.6441 H   0  0  0  0  0  0  0  0  0  0  0  0
   55.1053  159.2373   -6.2824 H   0  0  0  0  0  0  0  0  0  0  0  0
   61.0692  156.1266   -6.9155 H   0  0  0  0  0  0  0  0  0  0  0  0
   55.0324  161.4477   -5.1650 H   0  0  0  0  0  0  0  0  0  0  0  0
   54.1629  157.4315   -2.5005 H   0  0  0  0  0  0  0  0  0  0  0  0
   53.4894  162.3076   -2.5780 H   0  0  0  0  0  0  0  0  0  0  0  0
   54.8059  161.7999   -1.4916 H   0  0  0  0  0  0  0  0  0  0  0  0
   55.1903  162.6195   -3.0042 H   0  0  0  0  0  0  0  0  0  0  0  0
   59.8447  158.8991   -5.6229 H   0  0  0  0  0  0  0  0  0  0  0  0
   59.8899  158.4474   -3.8849 H   0  0  0  0  0  0  0  0  0  0  0  0
   60.9836  157.6390   -5.0362 H   0  0  0  0  0  0  0  0  0  0  0  0
   55.7319  155.9660   -3.4053 H   0  0  0  0  0  0  0  0  0  0  0  0
   55.4694  154.7858   -4.6660 H   0  0  0  0  0  0  0  0  0  0  0  0
   54.9126  156.9051   -6.1934 H   0  0  0  0  0  0  0  0  0  0  0  0
   51.7613  157.1551   -5.7653 H   0  0  0  0  0  0  0  0  0  0  0  0
   53.1248  157.3766   -6.6244 H   0  0  0  0  0  0  0  0  0  0  0  0
   53.4688  155.1361   -5.2037 H   0  0  0  0  0  0  0  0  0  0  0  0
  1  2  1  0  0  0  0
  1  3  2  0  0  0  0
  2  5  2  0  0  0  0
  3  8  1  0  0  0  0
  4  6  2  0  0  0  0
  4  9  1  0  0  0  0
  5 10  1  0  0  0  0
  6 11  1  0  0  0  0
  7  9  2  0  0  0  0
  7 17  1  0  0  0  0
  8 10  2  0  0  0  0
  8 12  1  0  0  0  0
  9 16  1  0  0  0  0
 10 19  1  0  0  0  0
 11 13  1  0  0  0  0
 11 17  2  0  0  0  0
 12 15  1  0  0  0  0
 12 18  2  0  0  0  0
 14 19  1  0  0  0  0
 15 16  1  0  0  0  0
 16 21  1  0  0  0  0
 18 19  1  0  0  0  0
 20 21  1  0  0  0  0
  1 22  1  0  0  0  0
  2 23  1  0  0  0  0
  3 24  1  0  0  0  0
  4 25  1  0  0  0  0
  5 26  1  0  0  0  0
  6 27  1  0  0  0  0
  7 28  1  0  0  0  0
 13 29  1  0  0  0  0
 13 30  1  0  0  0  0
 13 31  1  0  0  0  0
 14 32  1  0  0  0  0
 14 33  1  0  0  0  0
 14 34  1  0  0  0  0
 15 35  1  0  0  0  0
 15 36  1  0  0  0  0
 16 37  1  0  0  0  0
 20 38  1  0  0  0  0
 20 39  1  0  0  0  0
 21 40  1  0  0  0  0
M  END
> <FRED Chemgauss4 score>
-6.506546

$$$$
C93853010	P147069188
  -OEChem-05122015083D

 43 44  0     1  0  0  0  0  0999 V2000
   54.9412  157.2422   -3.1023 C   0  0  0  0  0  0  0  0  0  0  0  0
   54.0488  156.8933   -5.0544 C   0  0  0  0  0  0  0  0  0  0  0  0
   58.6523  161.5732   -1.8476 C   0  0  0  0  0  0  0  0  0  0  0  0
   56.7062  159.4273   -0.1425 C   0  0  0  0  0  0  0  0  0  0  0  0
   56.8786  160.9429   -0.2214 C   0  0  0  0  0  0  0  0  0  0  0  0
   56.8790  159.9398   -2.4693 C   0  0  0  0  0  0  0  0  0  0  0  0
   56.0757  159.0880   -1.4862 C   0  0  1  0  0  0  0  0  0  0  0  0
   57.1796  161.2349   -1.6990 C   0  0  2  0  0  0  0  0  0  0  0  0
   55.5382  164.6027   -3.8017 C   0  0  0  0  0  0  0  0  0  0  0  0
   56.9159  157.2323   -6.0702 C   0  0  0  0  0  0  0  0  0  0  0  0
   55.6827  164.6909   -2.2910 C   0  0  0  0  0  0  0  0  0  0  0  0
   56.5118  156.3842   -4.9126 C   0  0  0  0  0  0  0  0  0  0  0  0
   56.6996  163.6849   -1.7761 C   0  0  0  0  0  0  0  0  0  0  0  0
   53.6996  157.5725   -2.9104 N   0  0  0  0  0  0  0  0  0  0  0  0
   53.1122  157.3633   -4.1229 N   0  0  0  0  0  0  0  0  0  0  0  0
   55.2408  156.8226   -4.3597 N   0  0  0  0  0  0  0  0  0  0  0  0
   56.2755  162.3168   -2.1742 N   0  3  0  0  0  0  0  0  0  0  0  0
   59.0293  161.8350   -3.0234 O   0  5  0  0  0  0  0  0  0  0  0  0
   53.8303  156.6137   -6.2242 O   0  0  0  0  0  0  0  0  0  0  0  0
   59.3126  161.5490   -0.7712 O   0  0  0  0  0  0  0  0  0  0  0  0
   56.1594  157.3184   -1.8636 S   0  0  0  0  0  0  0  0  0  0  0  0
   57.6885  158.9527   -0.0229 H   0  0  0  0  0  0  0  0  0  0  0  0
   56.0781  159.1352    0.7051 H   0  0  0  0  0  0  0  0  0  0  0  0
   55.9471  161.4245    0.1028 H   0  0  0  0  0  0  0  0  0  0  0  0
   57.6682  161.2783    0.4602 H   0  0  0  0  0  0  0  0  0  0  0  0
   57.8103  159.4343   -2.7577 H   0  0  0  0  0  0  0  0  0  0  0  0
   56.3125  160.1134   -3.3920 H   0  0  0  0  0  0  0  0  0  0  0  0
   55.0236  159.3971   -1.4969 H   0  0  0  0  0  0  0  0  0  0  0  0
   56.5037  164.7791   -4.2860 H   0  0  0  0  0  0  0  0  0  0  0  0
   55.1820  163.6129   -4.1043 H   0  0  0  0  0  0  0  0  0  0  0  0
   54.8303  165.3511   -4.1723 H   0  0  0  0  0  0  0  0  0  0  0  0
   56.1711  157.1799   -6.8718 H   0  0  0  0  0  0  0  0  0  0  0  0
   57.0435  158.2761   -5.7636 H   0  0  0  0  0  0  0  0  0  0  0  0
   57.8722  156.8785   -6.4739 H   0  0  0  0  0  0  0  0  0  0  0  0
   54.7062  164.5116   -1.8256 H   0  0  0  0  0  0  0  0  0  0  0  0
   55.9874  165.7083   -2.0180 H   0  0  0  0  0  0  0  0  0  0  0  0
   57.2598  156.4412   -4.1160 H   0  0  0  0  0  0  0  0  0  0  0  0
   56.4002  155.3395   -5.2171 H   0  0  0  0  0  0  0  0  0  0  0  0
   57.6919  163.8475   -2.2069 H   0  0  0  0  0  0  0  0  0  0  0  0
   56.7666  163.6913   -0.6843 H   0  0  0  0  0  0  0  0  0  0  0  0
   52.1262  157.5470   -4.2578 H   0  0  0  0  0  0  0  0  0  0  0  0
   56.2053  162.2701   -3.1997 H   0  0  0  0  0  0  0  0  0  0  0  0
   55.3257  162.1410   -1.8196 H   0  0  0  0  0  0  0  0  0  0  0  0
  1 14  2  0  0  0  0
  1 16  1  0  0  0  0
  1 21  1  0  0  0  0
  2 15  1  0  0  0  0
  2 16  1  0  0  0  0
  2 19  2  0  0  0  0
  3  8  1  0  0  0  0
  3 18  1  0  0  0  0
  3 20  2  0  0  0  0
  4  5  1  0  0  0  0
  4  7  1  0  0  0  0
  5  8  1  0  0  0  0
  6  7  1  0  0  0  0
  6  8  1  0  0  0  0
  7 21  1  0  0  0  0
  8 17  1  0  0  0  0
  9 11  1  0  0  0  0
 10 12  1  0  0  0  0
 11 13  1  0  0  0  0
 12 16  1  0  0  0  0
 13 17  1  0  0  0  0
 14 15  1  0  0  0  0
  4 22  1  0  0  0  0
  4 23  1  0  0  0  0
  5 24  1  0  0  0  0
  5 25  1  0  0  0  0
  6 26  1  0  0  0  0
  6 27  1  0  0  0  0
  7 28  1  0  0  0  0
  9 29  1  0  0  0  0
  9 30  1  0  0  0  0
  9 31  1  0  0  0  0
 10 32  1  0  0  0  0
 10 33  1  0  0  0  0
 10 34  1  0  0  0  0
 11 35  1  0  0  0  0
 11 36  1  0  0  0  0
 12 37  1  0  0  0  0
 12 38  1  0  0  0  0
 13 39  1  0  0  0  0
 13 40  1  0  0  0  0
 15 41  1  0  0  0  0
 17 42  1  0  0  0  0
 17 43  1  0  0  0  0
M  CHG  2  17   1  18  -1
M  END
> <FRED Chemgauss4 score>
-6.506271

$$$$
C97831917	P155269791
  -OEChem-05122015083D

 38 38  0     1  0  0  0  0  0999 V2000
   55.0937  157.4054   -4.4395 C   0  0  0  0  0  0  0  0  0  0  0  0
   55.9537  158.0615   -3.5931 C   0  0  0  0  0  0  0  0  0  0  0  0
   53.9521  157.1534   -3.6553 C   0  0  0  0  0  0  0  0  0  0  0  0
   57.3127  158.5959   -3.8044 C   0  0  0  0  0  0  0  0  0  0  0  0
   60.7013  155.1432   -7.9133 C   0  0  0  0  0  0  0  0  0  0  0  0
   55.7930  158.7700   -1.1872 C   0  0  0  0  0  0  0  0  0  0  0  0
   55.2542  154.3541   -5.3335 C   0  0  0  0  0  0  0  0  0  0  0  0
   58.3820  155.2863   -6.9360 C   0  0  0  0  0  0  0  0  0  0  0  0
   57.5036  155.2905   -5.6858 C   0  0  0  0  0  0  0  0  0  0  0  0
   59.8780  155.1439   -6.6316 C   0  0  1  0  0  0  0  0  0  0  0  0
   54.0727  157.6119   -2.4066 N   0  0  0  0  0  0  0  0  0  0  0  0
   55.3005  158.1585   -2.3997 N   0  0  0  0  0  0  0  0  0  0  0  0
   52.8641  156.5093   -4.1537 N   0  0  0  0  0  0  0  0  0  0  0  0
   56.1059  155.3985   -6.0007 N   0  0  2  0  0  0  0  0  0  0  0  0
   54.0847  156.8427   -6.7706 O   0  0  0  0  0  0  0  0  0  0  0  0
   56.3341  157.9436   -6.6619 O   0  0  0  0  0  0  0  0  0  0  0  0
   60.1000  153.9168   -5.9425 O   0  0  0  0  0  0  0  0  0  0  0  0
   55.3819  156.9833   -6.1352 S   0  0  0  0  0  0  0  0  0  0  0  0
   57.2793  159.6411   -4.1536 H   0  0  0  0  0  0  0  0  0  0  0  0
   57.9161  158.5708   -2.8807 H   0  0  0  0  0  0  0  0  0  0  0  0
   57.8763  158.0110   -4.5517 H   0  0  0  0  0  0  0  0  0  0  0  0
   60.3865  154.3340   -8.5815 H   0  0  0  0  0  0  0  0  0  0  0  0
   60.6099  156.0949   -8.4454 H   0  0  0  0  0  0  0  0  0  0  0  0
   61.7595  154.9710   -7.6886 H   0  0  0  0  0  0  0  0  0  0  0  0
   55.5038  159.8241   -1.1995 H   0  0  0  0  0  0  0  0  0  0  0  0
   55.3572  158.2640   -0.3212 H   0  0  0  0  0  0  0  0  0  0  0  0
   56.8815  158.6715   -1.1492 H   0  0  0  0  0  0  0  0  0  0  0  0
   54.2060  154.4900   -5.6121 H   0  0  0  0  0  0  0  0  0  0  0  0
   55.3424  154.4323   -4.2465 H   0  0  0  0  0  0  0  0  0  0  0  0
   55.5730  153.3542   -5.6400 H   0  0  0  0  0  0  0  0  0  0  0  0
   58.0619  154.4441   -7.5626 H   0  0  0  0  0  0  0  0  0  0  0  0
   58.2094  156.2065   -7.5074 H   0  0  0  0  0  0  0  0  0  0  0  0
   57.6347  154.3526   -5.1365 H   0  0  0  0  0  0  0  0  0  0  0  0
   57.7608  156.1134   -5.0124 H   0  0  0  0  0  0  0  0  0  0  0  0
   60.2140  155.9613   -5.9846 H   0  0  0  0  0  0  0  0  0  0  0  0
   52.8114  156.2214   -5.1370 H   0  0  0  0  0  0  0  0  0  0  0  0
   52.0165  156.3697   -3.5926 H   0  0  0  0  0  0  0  0  0  0  0  0
   61.0496  153.8759   -5.7494 H   0  0  0  0  0  0  0  0  0  0  0  0
  1  2  2  0  0  0  0
  1  3  1  0  0  0  0
  1 18  1  0  0  0  0
  2  4  1  0  0  0  0
  2 12  1  0  0  0  0
  3 11  2  0  0  0  0
  3 13  1  0  0  0  0
  5 10  1  0  0  0  0
  6 12  1  0  0  0  0
  7 14  1  0  0  0  0
  8  9  1  0  0  0  0
  8 10  1  0  0  0  0
  9 14  1  0  0  0  0
 10 17  1  0  0  0  0
 11 12  1  0  0  0  0
 14 18  1  0  0  0  0
 15 18  2  0  0  0  0
 16 18  2  0  0  0  0
  4 19  1  0  0  0  0
  4 20  1  0  0  0  0
  4 21  1  0  0  0  0
  5 22  1  0  0  0  0
  5 23  1  0  0  0  0
  5 24  1  0  0  0  0
  6 25  1  0  0  0  0
  6 26  1  0  0  0  0
  6 27  1  0  0  0  0
  7 28  1  0  0  0  0
  7 29  1  0  0  0  0
  7 30  1  0  0  0  0
  8 31  1  0  0  0  0
  8 32  1  0  0  0  0
  9 33  1  0  0  0  0
  9 34  1  0  0  0  0
 10 35  1  0  0  0  0
 13 36  1  0  0  0  0
 13 37  1  0  0  0  0
 17 38  1  0  0  0  0
M  END
> <FRED Chemgauss4 score>
-6.502135

$$$$
C36877036	P120919263
  -OEChem-05122015083D

 30 31  0     1  0  0  0  0  0999 V2000
   55.9483  153.9414   -6.9050 C   0  0  0  0  0  0  0  0  0  0  0  0
   55.8088  155.2366   -6.3516 C   0  0  0  0  0  0  0  0  0  0  0  0
   54.2736  155.9945   -2.9550 C   0  0  0  0  0  0  0  0  0  0  0  0
   55.4268  153.0710   -5.9763 C   0  0  0  0  0  0  0  0  0  0  0  0
   54.8666  156.0693   -4.1932 C   0  0  0  0  0  0  0  0  0  0  0  0
   55.2118  155.0653   -5.1243 C   0  0  0  0  0  0  0  0  0  0  0  0
   54.6292  158.0659   -3.2913 C   0  0  0  0  0  0  0  0  0  0  0  0
   56.2698  159.5369   -1.1502 C   0  0  0  0  0  0  0  0  0  0  0  0
   57.2536  159.6568   -3.4398 C   0  0  0  0  0  0  0  0  0  0  0  0
   54.7232  159.5774   -3.1826 C   0  0  1  0  0  0  0  0  0  0  0  0
   56.0583  160.0741   -2.5715 C   0  0  0  0  0  0  0  0  0  0  0  0
   54.1284  157.2408   -2.3989 N   0  0  0  0  0  0  0  0  0  0  0  0
   55.0881  157.4025   -4.3951 N   0  0  0  0  0  0  0  0  0  0  0  0
   54.4998  160.1268   -4.5027 N   0  0  0  0  0  0  0  0  0  0  0  0
   54.9756  153.7482   -4.8880 O   0  0  0  0  0  0  0  0  0  0  0  0
   56.3756  153.6760   -7.8611 H   0  0  0  0  0  0  0  0  0  0  0  0
   56.1096  156.1739   -6.7993 H   0  0  0  0  0  0  0  0  0  0  0  0
   53.9431  155.1090   -2.4304 H   0  0  0  0  0  0  0  0  0  0  0  0
   55.3085  151.9980   -5.9404 H   0  0  0  0  0  0  0  0  0  0  0  0
   56.2787  158.4416   -1.1382 H   0  0  0  0  0  0  0  0  0  0  0  0
   57.2243  159.8862   -0.7415 H   0  0  0  0  0  0  0  0  0  0  0  0
   55.4839  159.8794   -0.4700 H   0  0  0  0  0  0  0  0  0  0  0  0
   57.3153  158.5672   -3.5322 H   0  0  0  0  0  0  0  0  0  0  0  0
   58.1933  160.0124   -3.0034 H   0  0  0  0  0  0  0  0  0  0  0  0
   57.1827  160.0809   -4.4464 H   0  0  0  0  0  0  0  0  0  0  0  0
   53.8957  159.9562   -2.5684 H   0  0  0  0  0  0  0  0  0  0  0  0
   56.0582  161.1709   -2.5227 H   0  0  0  0  0  0  0  0  0  0  0  0
   55.5166  157.8233   -5.2095 H   0  0  0  0  0  0  0  0  0  0  0  0
   54.8181  161.0580   -4.6976 H   0  0  0  0  0  0  0  0  0  0  0  0
   53.8634  159.6563   -5.1193 H   0  0  0  0  0  0  0  0  0  0  0  0
  1  2  1  0  0  0  0
  1  4  2  0  0  0  0
  2  6  2  0  0  0  0
  3  5  2  0  0  0  0
  3 12  1  0  0  0  0
  4 15  1  0  0  0  0
  5  6  1  0  0  0  0
  5 13  1  0  0  0  0
  6 15  1  0  0  0  0
  7 10  1  0  0  0  0
  7 12  2  0  0  0  0
  7 13  1  0  0  0  0
  8 11  1  0  0  0  0
  9 11  1  0  0  0  0
 10 11  1  0  0  0  0
 10 14  1  0  0  0  0
  1 16  1  0  0  0  0
  2 17  1  0  0  0  0
  3 18  1  0  0  0  0
  4 19  1  0  0  0  0
  8 20  1  0  0  0  0
  8 21  1  0  0  0  0
  8 22  1  0  0  0  0
  9 23  1  0  0  0  0
  9 24  1  0  0  0  0
  9 25  1  0  0  0  0
 10 26  1  0  0  0  0
 11 27  1  0  0  0  0
 13 28  1  0  0  0  0
 14 29  1  0  0  0  0
 14 30  1  0  0  0  0
M  END
> <FRED Chemgauss4 score>
-6.501056

$$$$
C82897720	P129591541
  -OEChem-05122015083D

 27 27  0     1  0  0  0  0  0999 V2000
   57.5050  154.5186   -6.4553 C   0  0  0  0  0  0  0  0  0  0  0  0
   57.5351  155.8011   -5.8756 C   0  0  0  0  0  0  0  0  0  0  0  0
   56.1688  154.2495   -6.6244 C   0  0  0  0  0  0  0  0  0  0  0  0
   58.7209  156.5793   -5.4794 C   0  0  0  0  0  0  0  0  0  0  0  0
   55.4814  153.0698   -7.1809 C   0  0  0  0  0  0  0  0  0  0  0  0
   54.0104  155.5522   -6.1150 C   0  0  0  0  0  0  0  0  0  0  0  0
   53.9582  156.3334   -3.6590 C   0  0  0  0  0  0  0  0  0  0  0  0
   53.4024  155.3655   -4.7119 C   0  0  1  0  0  0  0  0  0  0  0  0
   56.3149  156.3114   -5.6892 N   0  0  0  0  0  0  0  0  0  0  0  0
   55.5056  155.3446   -6.1545 N   0  0  0  0  0  0  0  0  0  0  0  0
   51.9500  155.5535   -4.8061 N   0  0  0  0  0  0  0  0  0  0  0  0
   53.7099  157.6841   -4.0251 O   0  0  0  0  0  0  0  0  0  0  0  0
   58.3357  153.8778   -6.7139 H   0  0  0  0  0  0  0  0  0  0  0  0
   59.0793  157.2135   -6.3084 H   0  0  0  0  0  0  0  0  0  0  0  0
   58.5172  157.2412   -4.6188 H   0  0  0  0  0  0  0  0  0  0  0  0
   59.5605  155.9315   -5.1697 H   0  0  0  0  0  0  0  0  0  0  0  0
   55.2618  152.3282   -6.3946 H   0  0  0  0  0  0  0  0  0  0  0  0
   54.5255  153.3359   -7.6649 H   0  0  0  0  0  0  0  0  0  0  0  0
   56.0839  152.5654   -7.9566 H   0  0  0  0  0  0  0  0  0  0  0  0
   53.8090  156.5704   -6.4768 H   0  0  0  0  0  0  0  0  0  0  0  0
   53.5231  154.8865   -6.8398 H   0  0  0  0  0  0  0  0  0  0  0  0
   53.4890  156.1517   -2.6864 H   0  0  0  0  0  0  0  0  0  0  0  0
   55.0389  156.1992   -3.5349 H   0  0  0  0  0  0  0  0  0  0  0  0
   53.5822  154.3409   -4.3639 H   0  0  0  0  0  0  0  0  0  0  0  0
   51.4607  155.7943   -3.9756 H   0  0  0  0  0  0  0  0  0  0  0  0
   51.4961  155.2380   -5.6318 H   0  0  0  0  0  0  0  0  0  0  0  0
   54.0844  158.2384   -3.3214 H   0  0  0  0  0  0  0  0  0  0  0  0
  1  2  1  0  0  0  0
  1  3  2  0  0  0  0
  2  4  1  0  0  0  0
  2  9  2  0  0  0  0
  3  5  1  0  0  0  0
  3 10  1  0  0  0  0
  6  8  1  0  0  0  0
  6 10  1  0  0  0  0
  7  8  1  0  0  0  0
  7 12  1  0  0  0  0
  8 11  1  0  0  0  0
  9 10  1  0  0  0  0
  1 13  1  0  0  0  0
  4 14  1  0  0  0  0
  4 15  1  0  0  0  0
  4 16  1  0  0  0  0
  5 17  1  0  0  0  0
  5 18  1  0  0  0  0
  5 19  1  0  0  0  0
  6 20  1  0  0  0  0
  6 21  1  0  0  0  0
  7 22  1  0  0  0  0
  7 23  1  0  0  0  0
  8 24  1  0  0  0  0
 11 25  1  0  0  0  0
 11 26  1  0  0  0  0
 12 27  1  0  0  0  0
M  END
> <FRED Chemgauss4 score>
-6.496474

$$$$
C83993337	P131402648
  -OEChem-05122015083D

 27 28  0     1  0  0  0  0  0999 V2000
   57.4149  155.1668   -6.8913 C   0  0  0  0  0  0  0  0  0  0  0  0
   52.9334  154.5132   -4.4676 C   0  0  0  0  0  0  0  0  0  0  0  0
   54.2159  156.1107   -4.0670 C   0  0  0  0  0  0  0  0  0  0  0  0
   56.8443  156.7010   -5.5960 C   0  0  0  0  0  0  0  0  0  0  0  0
   59.1417  158.9930   -5.9210 C   0  0  0  0  0  0  0  0  0  0  0  0
   56.1174  157.6809   -4.7097 C   0  0  0  0  0  0  0  0  0  0  0  0
   59.1561  157.6416   -5.2275 C   0  0  0  0  0  0  0  0  0  0  0  0
   55.3271  157.0103   -3.5739 C   0  0  1  0  0  0  0  0  0  0  0  0
   56.3203  155.7148   -6.2860 N   0  0  0  0  0  0  0  0  0  0  0  0
   58.5832  155.7519   -6.6191 N   0  0  0  0  0  0  0  0  0  0  0  0
   54.0689  154.8376   -3.7820 N   0  0  0  0  0  0  0  0  0  0  0  0
   53.2083  156.5156   -4.8859 N   0  0  0  0  0  0  0  0  0  0  0  0
   52.3686  155.5054   -5.1589 N   0  0  0  0  0  0  0  0  0  0  0  0
   58.1903  156.7299   -5.7888 N   0  0  0  0  0  0  0  0  0  0  0  0
   54.7516  158.0228   -2.7459 O   0  0  0  0  0  0  0  0  0  0  0  0
   57.3592  154.3144   -7.5514 H   0  0  0  0  0  0  0  0  0  0  0  0
   52.5164  153.5148   -4.4523 H   0  0  0  0  0  0  0  0  0  0  0  0
   59.3622  158.8922   -6.9890 H   0  0  0  0  0  0  0  0  0  0  0  0
   59.8929  159.6545   -5.4785 H   0  0  0  0  0  0  0  0  0  0  0  0
   58.1633  159.4757   -5.8264 H   0  0  0  0  0  0  0  0  0  0  0  0
   56.8532  158.3760   -4.2823 H   0  0  0  0  0  0  0  0  0  0  0  0
   55.4590  158.3215   -5.3116 H   0  0  0  0  0  0  0  0  0  0  0  0
   58.9346  157.7528   -4.1600 H   0  0  0  0  0  0  0  0  0  0  0  0
   60.1453  157.1768   -5.3077 H   0  0  0  0  0  0  0  0  0  0  0  0
   56.0061  156.4363   -2.9314 H   0  0  0  0  0  0  0  0  0  0  0  0
   51.5517  155.6087   -5.7545 H   0  0  0  0  0  0  0  0  0  0  0  0
   55.4855  158.5802   -2.4472 H   0  0  0  0  0  0  0  0  0  0  0  0
  1  9  1  0  0  0  0
  1 10  2  0  0  0  0
  2 11  2  0  0  0  0
  2 13  1  0  0  0  0
  3  8  1  0  0  0  0
  3 11  1  0  0  0  0
  3 12  2  0  0  0  0
  4  6  1  0  0  0  0
  4  9  2  0  0  0  0
  4 14  1  0  0  0  0
  5  7  1  0  0  0  0
  6  8  1  0  0  0  0
  7 14  1  0  0  0  0
  8 15  1  0  0  0  0
 10 14  1  0  0  0  0
 12 13  1  0  0  0  0
  1 16  1  0  0  0  0
  2 17  1  0  0  0  0
  5 18  1  0  0  0  0
  5 19  1  0  0  0  0
  5 20  1  0  0  0  0
  6 21  1  0  0  0  0
  6 22  1  0  0  0  0
  7 23  1  0  0  0  0
  7 24  1  0  0  0  0
  8 25  1  0  0  0  0
 13 26  1  0  0  0  0
 15 27  1  0  0  0  0
M  END
> <FRED Chemgauss4 score>
-6.494175

$$$$
C95045183	P149000638
  -OEChem-05122015083D

 41 43  0     0  0  0  0  0  0999 V2000
   54.5570  156.0001   -3.5405 C   0  0  0  0  0  0  0  0  0  0  0  0
   55.0994  157.7344   -2.4472 C   0  0  0  0  0  0  0  0  0  0  0  0
   54.5704  154.9029   -4.5210 C   0  0  0  0  0  0  0  0  0  0  0  0
   54.8829  157.5557   -6.4914 C   0  0  0  0  0  0  0  0  0  0  0  0
   56.5867  159.8289   -2.9602 C   0  0  0  0  0  0  0  0  0  0  0  0
   57.3590  158.9815   -1.9983 C   0  0  0  0  0  0  0  0  0  0  0  0
   54.5651  152.9447   -6.8108 C   0  0  0  0  0  0  0  0  0  0  0  0
   56.7114  154.2482   -6.5369 C   0  0  0  0  0  0  0  0  0  0  0  0
   55.2857  151.9730   -7.7346 C   0  0  0  0  0  0  0  0  0  0  0  0
   57.4140  153.2653   -7.4630 C   0  0  0  0  0  0  0  0  0  0  0  0
   55.8487  158.9567   -1.9718 C   0  0  0  0  0  0  0  0  0  0  0  0
   55.2124  154.3343   -6.8481 C   0  0  0  0  0  0  0  0  0  0  0  0
   53.9013  156.4072   -6.4508 C   0  0  0  0  0  0  0  0  0  0  0  0
   53.5952  156.1736   -2.6129 N   0  5  0  0  0  0  0  0  0  0  0  0
   55.4973  156.9509   -3.4585 N   0  0  0  0  0  0  0  0  0  0  0  0
   53.9458  157.2965   -1.9058 N   0  0  0  0  0  0  0  0  0  0  0  0
   54.2613  158.7803   -6.3741 N   0  0  0  0  0  0  0  0  0  0  0  0
   54.5530  155.2189   -5.8898 N   0  0  0  0  0  0  0  0  0  0  0  0
   56.7354  151.9376   -7.3775 N   0  3  0  0  0  0  0  0  0  0  0  0
   54.6110  153.7623   -4.0611 O   0  0  0  0  0  0  0  0  0  0  0  0
   56.1000  157.4144   -6.5729 O   0  0  0  0  0  0  0  0  0  0  0  0
   56.5822  160.9005   -2.7968 H   0  0  0  0  0  0  0  0  0  0  0  0
   56.5918  159.5387   -4.0045 H   0  0  0  0  0  0  0  0  0  0  0  0
   57.8837  158.1201   -2.3956 H   0  0  0  0  0  0  0  0  0  0  0  0
   57.8753  159.4805   -1.1863 H   0  0  0  0  0  0  0  0  0  0  0  0
   53.5103  153.0133   -7.1032 H   0  0  0  0  0  0  0  0  0  0  0  0
   54.5774  152.5553   -5.7841 H   0  0  0  0  0  0  0  0  0  0  0  0
   56.8586  153.9413   -5.4928 H   0  0  0  0  0  0  0  0  0  0  0  0
   57.1734  155.2379   -6.6363 H   0  0  0  0  0  0  0  0  0  0  0  0
   54.9038  150.9541   -7.6225 H   0  0  0  0  0  0  0  0  0  0  0  0
   55.2149  152.2729   -8.7852 H   0  0  0  0  0  0  0  0  0  0  0  0
   57.3763  153.5850   -8.5095 H   0  0  0  0  0  0  0  0  0  0  0  0
   58.4560  153.1111   -7.1681 H   0  0  0  0  0  0  0  0  0  0  0  0
   55.3791  159.4884   -1.1249 H   0  0  0  0  0  0  0  0  0  0  0  0
   55.0631  154.7852   -7.8254 H   0  0  0  0  0  0  0  0  0  0  0  0
   53.5499  156.1581   -7.4558 H   0  0  0  0  0  0  0  0  0  0  0  0
   53.0532  156.6734   -5.8142 H   0  0  0  0  0  0  0  0  0  0  0  0
   53.2539  158.8461   -6.2733 H   0  0  0  0  0  0  0  0  0  0  0  0
   54.7767  159.6547   -6.3819 H   0  0  0  0  0  0  0  0  0  0  0  0
   56.8451  151.5572   -6.4270 H   0  0  0  0  0  0  0  0  0  0  0  0
   57.2180  151.2734   -7.9983 H   0  0  0  0  0  0  0  0  0  0  0  0
  1  3  1  0  0  0  0
  1 14  1  0  0  0  0
  1 15  2  0  0  0  0
  2 11  1  0  0  0  0
  2 15  1  0  0  0  0
  2 16  2  0  0  0  0
  3 18  1  0  0  0  0
  3 20  2  0  0  0  0
  4 13  1  0  0  0  0
  4 17  1  0  0  0  0
  4 21  2  0  0  0  0
  5  6  1  0  0  0  0
  5 11  1  0  0  0  0
  6 11  1  0  0  0  0
  7  9  1  0  0  0  0
  7 12  1  0  0  0  0
  8 10  1  0  0  0  0
  8 12  1  0  0  0  0
  9 19  1  0  0  0  0
 10 19  1  0  0  0  0
 12 18  1  0  0  0  0
 13 18  1  0  0  0  0
 14 16  1  0  0  0  0
  5 22  1  0  0  0  0
  5 23  1  0  0  0  0
  6 24  1  0  0  0  0
  6 25  1  0  0  0  0
  7 26  1  0  0  0  0
  7 27  1  0  0  0  0
  8 28  1  0  0  0  0
  8 29  1  0  0  0  0
  9 30  1  0  0  0  0
  9 31  1  0  0  0  0
 10 32  1  0  0  0  0
 10 33  1  0  0  0  0
 11 34  1  0  0  0  0
 12 35  1  0  0  0  0
 13 36  1  0  0  0  0
 13 37  1  0  0  0  0
 17 38  1  0  0  0  0
 17 39  1  0  0  0  0
 19 40  1  0  0  0  0
 19 41  1  0  0  0  0
M  CHG  2  14  -1  19   1
M  END
> <FRED Chemgauss4 score>
-6.493763

$$$$
C87666342	P137137137
  -OEChem-05122015083D

 25 25  0     1  0  0  0  0  0999 V2000
   57.6814  155.6410   -6.0033 C   0  0  0  0  0  0  0  0  0  0  0  0
   56.5535  156.3206   -5.7628 C   0  0  0  0  0  0  0  0  0  0  0  0
   55.9436  154.2795   -6.5793 C   0  0  0  0  0  0  0  0  0  0  0  0
   58.3243  153.3930   -6.8714 C   0  0  0  0  0  0  0  0  0  0  0  0
   54.0973  155.9398   -5.9690 C   0  0  0  0  0  0  0  0  0  0  0  0
   54.0927  155.7121   -3.4310 C   0  0  0  0  0  0  0  0  0  0  0  0
   53.4097  155.3326   -4.7453 C   0  0  1  0  0  0  0  0  0  0  0  0
   57.3610  154.3974   -6.4992 N   0  0  0  0  0  0  0  0  0  0  0  0
   55.4739  155.5348   -6.0973 N   0  0  0  0  0  0  0  0  0  0  0  0
   54.0883  157.1493   -3.2685 N   0  0  0  0  0  0  0  0  0  0  0  0
   55.2861  153.3264   -6.9691 O   0  0  0  0  0  0  0  0  0  0  0  0
   52.0513  155.7693   -4.7009 O   0  0  0  0  0  0  0  0  0  0  0  0
   58.7040  155.9492   -5.8577 H   0  0  0  0  0  0  0  0  0  0  0  0
   56.4320  157.3181   -5.3732 H   0  0  0  0  0  0  0  0  0  0  0  0
   58.5534  152.7558   -6.0132 H   0  0  0  0  0  0  0  0  0  0  0  0
   59.2485  153.8649   -7.2159 H   0  0  0  0  0  0  0  0  0  0  0  0
   57.9279  152.7691   -7.6770 H   0  0  0  0  0  0  0  0  0  0  0  0
   53.5827  155.6478   -6.8898 H   0  0  0  0  0  0  0  0  0  0  0  0
   54.1002  157.0326   -5.9041 H   0  0  0  0  0  0  0  0  0  0  0  0
   55.1325  155.3694   -3.4135 H   0  0  0  0  0  0  0  0  0  0  0  0
   53.5653  155.2648   -2.5822 H   0  0  0  0  0  0  0  0  0  0  0  0
   53.3958  154.2413   -4.8550 H   0  0  0  0  0  0  0  0  0  0  0  0
   54.2364  157.7271   -4.0756 H   0  0  0  0  0  0  0  0  0  0  0  0
   54.1424  157.5306   -2.3417 H   0  0  0  0  0  0  0  0  0  0  0  0
   51.6376  155.4609   -5.5211 H   0  0  0  0  0  0  0  0  0  0  0  0
  1  2  2  0  0  0  0
  1  8  1  0  0  0  0
  2  9  1  0  0  0  0
  3  8  1  0  0  0  0
  3  9  1  0  0  0  0
  3 11  2  0  0  0  0
  4  8  1  0  0  0  0
  5  7  1  0  0  0  0
  5  9  1  0  0  0  0
  6  7  1  0  0  0  0
  6 10  1  0  0  0  0
  7 12  1  0  0  0  0
  1 13  1  0  0  0  0
  2 14  1  0  0  0  0
  4 15  1  0  0  0  0
  4 16  1  0  0  0  0
  4 17  1  0  0  0  0
  5 18  1  0  0  0  0
  5 19  1  0  0  0  0
  6 20  1  0  0  0  0
  6 21  1  0  0  0  0
  7 22  1  0  0  0  0
 10 23  1  0  0  0  0
 10 24  1  0  0  0  0
 12 25  1  0  0  0  0
M  END
> <FRED Chemgauss4 score>
-6.483082

$$$$
C62086107	P95267279
  -OEChem-05122015083D

 37 37  0     1  0  0  0  0  0999 V2000
   53.2617  155.6937   -3.9720 C   0  0  0  0  0  0  0  0  0  0  0  0
   56.5798  157.3113   -6.7631 C   0  0  0  0  0  0  0  0  0  0  0  0
   57.9024  156.7540   -4.8204 C   0  0  0  0  0  0  0  0  0  0  0  0
   57.7782  157.0669   -7.6788 C   0  0  0  0  0  0  0  0  0  0  0  0
   59.1269  156.4983   -5.6980 C   0  0  0  0  0  0  0  0  0  0  0  0
   54.6675  154.5175   -5.7445 C   0  0  0  0  0  0  0  0  0  0  0  0
   60.4206  155.7561   -8.5597 C   0  0  0  0  0  0  0  0  0  0  0  0
   55.4958  156.6876   -4.7025 C   0  0  0  0  0  0  0  0  0  0  0  0
   54.2570  155.8666   -5.1363 C   0  0  2  0  0  0  0  0  0  0  0  0
   56.6625  156.4741   -5.5580 N   0  0  0  0  0  0  0  0  0  0  0  0
   59.0392  157.3328   -6.9298 N   0  0  0  0  0  0  0  0  0  0  0  0
   52.0782  155.0712   -4.3073 N   0  0  0  0  0  0  0  0  0  0  0  0
   53.5590  156.6533   -6.1644 N   0  0  0  0  0  0  0  0  0  0  0  0
   53.4881  156.0957   -2.8309 O   0  0  0  0  0  0  0  0  0  0  0  0
   61.6060  157.4855   -7.0006 O   0  0  0  0  0  0  0  0  0  0  0  0
   60.2577  158.3327   -8.9627 O   0  0  0  0  0  0  0  0  0  0  0  0
   60.4620  157.3947   -7.8809 S   0  0  0  0  0  0  0  0  0  0  0  0
   56.5324  158.3747   -6.4924 H   0  0  0  0  0  0  0  0  0  0  0  0
   55.6663  157.0729   -7.3210 H   0  0  0  0  0  0  0  0  0  0  0  0
   57.9674  156.1030   -3.9403 H   0  0  0  0  0  0  0  0  0  0  0  0
   57.9151  157.7927   -4.4635 H   0  0  0  0  0  0  0  0  0  0  0  0
   57.7798  156.0356   -8.0513 H   0  0  0  0  0  0  0  0  0  0  0  0
   57.7161  157.7451   -8.5369 H   0  0  0  0  0  0  0  0  0  0  0  0
   60.0293  156.7700   -5.1395 H   0  0  0  0  0  0  0  0  0  0  0  0
   59.1947  155.4389   -5.9727 H   0  0  0  0  0  0  0  0  0  0  0  0
   55.3747  154.6529   -6.5706 H   0  0  0  0  0  0  0  0  0  0  0  0
   55.1611  153.8650   -5.0150 H   0  0  0  0  0  0  0  0  0  0  0  0
   53.7968  153.9712   -6.1255 H   0  0  0  0  0  0  0  0  0  0  0  0
   61.2879  155.6307   -9.2099 H   0  0  0  0  0  0  0  0  0  0  0  0
   60.4535  155.0412   -7.7362 H   0  0  0  0  0  0  0  0  0  0  0  0
   59.4966  155.6423   -9.1286 H   0  0  0  0  0  0  0  0  0  0  0  0
   55.2599  157.7594   -4.7070 H   0  0  0  0  0  0  0  0  0  0  0  0
   55.7809  156.4309   -3.6743 H   0  0  0  0  0  0  0  0  0  0  0  0
   51.9233  154.7687   -5.2628 H   0  0  0  0  0  0  0  0  0  0  0  0
   51.3607  154.9127   -3.6077 H   0  0  0  0  0  0  0  0  0  0  0  0
   53.5543  157.6401   -6.0623 H   0  0  0  0  0  0  0  0  0  0  0  0
   52.9614  156.1652   -6.7881 H   0  0  0  0  0  0  0  0  0  0  0  0
  1  9  1  0  0  0  0
  1 12  1  0  0  0  0
  1 14  2  0  0  0  0
  2  4  1  0  0  0  0
  2 10  1  0  0  0  0
  3  5  1  0  0  0  0
  3 10  1  0  0  0  0
  4 11  1  0  0  0  0
  5 11  1  0  0  0  0
  6  9  1  0  0  0  0
  7 17  1  0  0  0  0
  8  9  1  0  0  0  0
  8 10  1  0  0  0  0
  9 13  1  0  0  0  0
 11 17  1  0  0  0  0
 15 17  2  0  0  0  0
 16 17  2  0  0  0  0
  2 18  1  0  0  0  0
  2 19  1  0  0  0  0
  3 20  1  0  0  0  0
  3 21  1  0  0  0  0
  4 22  1  0  0  0  0
  4 23  1  0  0  0  0
  5 24  1  0  0  0  0
  5 25  1  0  0  0  0
  6 26  1  0  0  0  0
  6 27  1  0  0  0  0
  6 28  1  0  0  0  0
  7 29  1  0  0  0  0
  7 30  1  0  0  0  0
  7 31  1  0  0  0  0
  8 32  1  0  0  0  0
  8 33  1  0  0  0  0
 12 34  1  0  0  0  0
 12 35  1  0  0  0  0
 13 36  1  0  0  0  0
 13 37  1  0  0  0  0
M  END
> <FRED Chemgauss4 score>
-6.473506

$$$$
C85790865	P134349332
  -OEChem-05122015083D

 34 34  0     1  0  0  0  0  0999 V2000
   60.1262  157.9015   -6.1545 C   0  0  0  0  0  0  0  0  0  0  0  0
   58.4278  157.0794   -7.6502 C   0  0  0  0  0  0  0  0  0  0  0  0
   59.3291  157.3376   -4.9825 C   0  0  0  0  0  0  0  0  0  0  0  0
   57.6650  156.5257   -6.4408 C   0  0  2  0  0  0  0  0  0  0  0  0
   60.6181  157.6308   -8.5003 C   0  0  0  0  0  0  0  0  0  0  0  0
   56.1619  156.5494   -6.6830 C   0  0  0  0  0  0  0  0  0  0  0  0
   54.0210  156.0324   -5.7292 C   0  0  0  0  0  0  0  0  0  0  0  0
   53.5882  156.2849   -3.2272 C   0  0  0  0  0  0  0  0  0  0  0  0
   53.3048  155.4845   -4.4948 C   0  0  1  0  0  0  0  0  0  0  0  0
   59.8695  157.1035   -7.3612 N   0  0  1  0  0  0  0  0  0  0  0  0
   55.4778  156.0217   -5.5489 N   0  0  0  0  0  0  0  0  0  0  0  0
   57.9341  157.3302   -5.2871 O   0  0  0  0  0  0  0  0  0  0  0  0
   53.1792  157.6335   -3.4336 O   0  0  0  0  0  0  0  0  0  0  0  0
   51.8944  155.4813   -4.7184 O   0  0  0  0  0  0  0  0  0  0  0  0
   59.8391  158.9478   -6.3218 H   0  0  0  0  0  0  0  0  0  0  0  0
   61.1928  157.8780   -5.9032 H   0  0  0  0  0  0  0  0  0  0  0  0
   58.2317  156.4441   -8.5222 H   0  0  0  0  0  0  0  0  0  0  0  0
   58.0741  158.0927   -7.8840 H   0  0  0  0  0  0  0  0  0  0  0  0
   59.6530  156.3221   -4.7234 H   0  0  0  0  0  0  0  0  0  0  0  0
   59.4726  157.9661   -4.0979 H   0  0  0  0  0  0  0  0  0  0  0  0
   57.9702  155.4922   -6.2316 H   0  0  0  0  0  0  0  0  0  0  0  0
   60.4193  157.0296   -9.3913 H   0  0  0  0  0  0  0  0  0  0  0  0
   61.6911  157.6063   -8.2915 H   0  0  0  0  0  0  0  0  0  0  0  0
   60.3235  158.6645   -8.7003 H   0  0  0  0  0  0  0  0  0  0  0  0
   55.9356  155.9405   -7.5501 H   0  0  0  0  0  0  0  0  0  0  0  0
   55.8433  157.5717   -6.8461 H   0  0  0  0  0  0  0  0  0  0  0  0
   53.7802  155.4193   -6.6042 H   0  0  0  0  0  0  0  0  0  0  0  0
   53.6917  157.0560   -5.9356 H   0  0  0  0  0  0  0  0  0  0  0  0
   54.6574  156.2867   -2.9940 H   0  0  0  0  0  0  0  0  0  0  0  0
   53.0254  155.8963   -2.3725 H   0  0  0  0  0  0  0  0  0  0  0  0
   53.6000  154.4401   -4.3386 H   0  0  0  0  0  0  0  0  0  0  0  0
   55.7648  155.0490   -5.3677 H   0  0  0  0  0  0  0  0  0  0  0  0
   53.3732  158.1107   -2.6117 H   0  0  0  0  0  0  0  0  0  0  0  0
   51.4905  155.1276   -3.9118 H   0  0  0  0  0  0  0  0  0  0  0  0
  1  3  1  0  0  0  0
  1 10  1  0  0  0  0
  2  4  1  0  0  0  0
  2 10  1  0  0  0  0
  3 12  1  0  0  0  0
  4  6  1  0  0  0  0
  4 12  1  0  0  0  0
  5 10  1  0  0  0  0
  6 11  1  0  0  0  0
  7  9  1  0  0  0  0
  7 11  1  0  0  0  0
  8  9  1  0  0  0  0
  8 13  1  0  0  0  0
  9 14  1  0  0  0  0
  1 15  1  0  0  0  0
  1 16  1  0  0  0  0
  2 17  1  0  0  0  0
  2 18  1  0  0  0  0
  3 19  1  0  0  0  0
  3 20  1  0  0  0  0
  4 21  1  0  0  0  0
  5 22  1  0  0  0  0
  5 23  1  0  0  0  0
  5 24  1  0  0  0  0
  6 25  1  0  0  0  0
  6 26  1  0  0  0  0
  7 27  1  0  0  0  0
  7 28  1  0  0  0  0
  8 29  1  0  0  0  0
  8 30  1  0  0  0  0
  9 31  1  0  0  0  0
 11 32  1  0  0  0  0
 13 33  1  0  0  0  0
 14 34  1  0  0  0  0
M  END
> <FRED Chemgauss4 score>
-6.470495

$$$$
C94718071	P148459693
  -OEChem-05122015083D

 39 40  0     0  0  0  0  0  0999 V2000
   56.4405  157.6439   -5.6569 C   0  0  0  0  0  0  0  0  0  0  0  0
   56.5313  156.2903   -5.9812 C   0  0  0  0  0  0  0  0  0  0  0  0
   58.1301  163.9858   -3.1720 C   0  0  0  0  0  0  0  0  0  0  0  0
   58.4972  161.6718   -3.7616 C   0  0  0  0  0  0  0  0  0  0  0  0
   56.3376  162.3820   -2.9439 C   0  0  0  0  0  0  0  0  0  0  0  0
   54.3292  155.9215   -5.0583 C   0  0  0  0  0  0  0  0  0  0  0  0
   58.9723  162.9777   -3.6411 C   0  0  0  0  0  0  0  0  0  0  0  0
   56.8127  163.6879   -2.8233 C   0  0  0  0  0  0  0  0  0  0  0  0
   57.1798  161.3739   -3.4130 C   0  0  0  0  0  0  0  0  0  0  0  0
   54.2384  157.2751   -4.7340 C   0  0  0  0  0  0  0  0  0  0  0  0
   55.2940  158.1363   -5.0333 C   0  0  0  0  0  0  0  0  0  0  0  0
   55.4757  155.4291   -5.6819 C   0  0  0  0  0  0  0  0  0  0  0  0
   60.3807  163.2969   -4.0140 C   0  0  0  0  0  0  0  0  0  0  0  0
   55.9115  164.7655   -2.3220 C   0  0  0  0  0  0  0  0  0  0  0  0
   56.6722  159.9774   -3.5420 C   0  0  0  0  0  0  0  0  0  0  0  0
   53.0613  157.7379   -4.1025 N   0  0  0  0  0  0  0  0  0  0  0  0
   57.1428  153.6754   -6.7999 N   0  0  0  0  0  0  0  0  0  0  0  0
   55.6150  152.9678   -4.8478 O   0  0  0  0  0  0  0  0  0  0  0  0
   54.5963  153.4325   -7.1048 O   0  0  0  0  0  0  0  0  0  0  0  0
   55.2332  159.8584   -4.6479 S   0  0  0  0  0  0  0  0  0  0  0  0
   55.5917  153.7344   -6.0857 S   0  0  0  0  0  0  0  0  0  0  0  0
   57.2753  158.2972   -5.8996 H   0  0  0  0  0  0  0  0  0  0  0  0
   57.4290  155.9180   -6.4677 H   0  0  0  0  0  0  0  0  0  0  0  0
   58.5001  165.0040   -3.0774 H   0  0  0  0  0  0  0  0  0  0  0  0
   59.1540  160.8859   -4.1274 H   0  0  0  0  0  0  0  0  0  0  0  0
   55.3107  162.1496   -2.6721 H   0  0  0  0  0  0  0  0  0  0  0  0
   53.5079  155.2476   -4.8251 H   0  0  0  0  0  0  0  0  0  0  0  0
   61.0412  163.1809   -3.1461 H   0  0  0  0  0  0  0  0  0  0  0  0
   60.7398  162.6379   -4.8151 H   0  0  0  0  0  0  0  0  0  0  0  0
   60.4710  164.3262   -4.3851 H   0  0  0  0  0  0  0  0  0  0  0  0
   55.3811  165.2390   -3.1572 H   0  0  0  0  0  0  0  0  0  0  0  0
   55.1686  164.3682   -1.6184 H   0  0  0  0  0  0  0  0  0  0  0  0
   56.4759  165.5389   -1.7849 H   0  0  0  0  0  0  0  0  0  0  0  0
   57.4578  159.3087   -3.9237 H   0  0  0  0  0  0  0  0  0  0  0  0
   56.3846  159.5759   -2.5592 H   0  0  0  0  0  0  0  0  0  0  0  0
   52.3105  157.0982   -3.9484 H   0  0  0  0  0  0  0  0  0  0  0  0
   52.9667  158.7128   -3.9090 H   0  0  0  0  0  0  0  0  0  0  0  0
   57.2626  154.0999   -7.7277 H   0  0  0  0  0  0  0  0  0  0  0  0
   57.9602  153.7806   -6.1866 H   0  0  0  0  0  0  0  0  0  0  0  0
  1  2  2  0  0  0  0
  1 11  1  0  0  0  0
  2 12  1  0  0  0  0
  3  7  2  0  0  0  0
  3  8  1  0  0  0  0
  4  7  1  0  0  0  0
  4  9  2  0  0  0  0
  5  8  2  0  0  0  0
  5  9  1  0  0  0  0
  6 10  1  0  0  0  0
  6 12  2  0  0  0  0
  7 13  1  0  0  0  0
  8 14  1  0  0  0  0
  9 15  1  0  0  0  0
 10 11  2  0  0  0  0
 10 16  1  0  0  0  0
 11 20  1  0  0  0  0
 12 21  1  0  0  0  0
 15 20  1  0  0  0  0
 17 21  1  0  0  0  0
 18 21  2  0  0  0  0
 19 21  2  0  0  0  0
  1 22  1  0  0  0  0
  2 23  1  0  0  0  0
  3 24  1  0  0  0  0
  4 25  1  0  0  0  0
  5 26  1  0  0  0  0
  6 27  1  0  0  0  0
 13 28  1  0  0  0  0
 13 29  1  0  0  0  0
 13 30  1  0  0  0  0
 14 31  1  0  0  0  0
 14 32  1  0  0  0  0
 14 33  1  0  0  0  0
 15 34  1  0  0  0  0
 15 35  1  0  0  0  0
 16 36  1  0  0  0  0
 16 37  1  0  0  0  0
 17 38  1  0  0  0  0
 17 39  1  0  0  0  0
M  END
> <FRED Chemgauss4 score>
-6.470308

$$$$
C40261514	P61120112
  -OEChem-05122015083D

 26 27  0     1  0  0  0  0  0999 V2000
   57.5415  158.0092   -4.4070 C   0  0  0  0  0  0  0  0  0  0  0  0
   55.4775  156.8088   -4.7752 C   0  0  0  0  0  0  0  0  0  0  0  0
   57.3734  156.4238   -6.2223 C   0  0  0  0  0  0  0  0  0  0  0  0
   57.2245  162.3445   -3.9122 C   0  0  0  0  0  0  0  0  0  0  0  0
   56.4589  162.9701   -2.9568 C   0  0  0  0  0  0  0  0  0  0  0  0
   56.2215  157.7374   -4.0474 C   0  0  0  0  0  0  0  0  0  0  0  0
   58.1175  157.3524   -5.4945 C   0  0  0  0  0  0  0  0  0  0  0  0
   56.0534  156.1520   -5.8627 C   0  0  0  0  0  0  0  0  0  0  0  0
   55.7193  160.9374   -3.3784 C   0  0  0  0  0  0  0  0  0  0  0  0
   54.8328  159.7234   -3.2590 C   0  0  0  0  0  0  0  0  0  0  0  0
   55.6069  158.4389   -2.8835 C   0  0  1  0  0  0  0  0  0  0  0  0
   56.7588  161.0796   -4.1704 N   0  0  0  0  0  0  0  0  0  0  0  0
   55.4984  162.0566   -2.6248 N   0  0  0  0  0  0  0  0  0  0  0  0
   54.6989  157.5452   -2.2217 O   0  0  0  0  0  0  0  0  0  0  0  0
   59.7457  157.6889   -5.9387 Cl  0  0  0  0  0  0  0  0  0  0  0  0
   55.1352  155.0054   -6.7598 Cl  0  0  0  0  0  0  0  0  0  0  0  0
   58.1178  158.7340   -3.8362 H   0  0  0  0  0  0  0  0  0  0  0  0
   54.4485  156.6010   -4.4903 H   0  0  0  0  0  0  0  0  0  0  0  0
   57.8231  155.9122   -7.0707 H   0  0  0  0  0  0  0  0  0  0  0  0
   58.0864  162.7411   -4.4283 H   0  0  0  0  0  0  0  0  0  0  0  0
   56.5071  163.9468   -2.4978 H   0  0  0  0  0  0  0  0  0  0  0  0
   54.0574  159.9309   -2.5087 H   0  0  0  0  0  0  0  0  0  0  0  0
   54.2722  159.5693   -4.1906 H   0  0  0  0  0  0  0  0  0  0  0  0
   56.3754  158.6881   -2.1309 H   0  0  0  0  0  0  0  0  0  0  0  0
   54.7616  162.1852   -1.9438 H   0  0  0  0  0  0  0  0  0  0  0  0
   54.3292  158.0431   -1.4799 H   0  0  0  0  0  0  0  0  0  0  0  0
  1  6  1  0  0  0  0
  1  7  2  0  0  0  0
  2  6  2  0  0  0  0
  2  8  1  0  0  0  0
  3  7  1  0  0  0  0
  3  8  2  0  0  0  0
  4  5  2  0  0  0  0
  4 12  1  0  0  0  0
  5 13  1  0  0  0  0
  6 11  1  0  0  0  0
  7 15  1  0  0  0  0
  8 16  1  0  0  0  0
  9 10  1  0  0  0  0
  9 12  2  0  0  0  0
  9 13  1  0  0  0  0
 10 11  1  0  0  0  0
 11 14  1  0  0  0  0
  1 17  1  0  0  0  0
  2 18  1  0  0  0  0
  3 19  1  0  0  0  0
  4 20  1  0  0  0  0
  5 21  1  0  0  0  0
 10 22  1  0  0  0  0
 10 23  1  0  0  0  0
 11 24  1  0  0  0  0
 13 25  1  0  0  0  0
 14 26  1  0  0  0  0
M  END
> <FRED Chemgauss4 score>
-6.466068

$$$$
C79910210	P124846163
  -OEChem-05122015083D

 35 36  0     1  0  0  0  0  0999 V2000
   54.5643  153.8766   -6.9549 C   0  0  0  0  0  0  0  0  0  0  0  0
   55.8591  153.6468   -7.2011 C   0  0  0  0  0  0  0  0  0  0  0  0
   54.9853  156.1653   -6.4047 C   0  0  0  0  0  0  0  0  0  0  0  0
   54.0826  155.1791   -6.5390 C   0  0  0  0  0  0  0  0  0  0  0  0
   56.8553  154.7453   -7.0511 C   0  0  0  0  0  0  0  0  0  0  0  0
   55.6639  159.0487   -2.0616 C   0  0  0  0  0  0  0  0  0  0  0  0
   57.4279  157.3773   -4.9958 C   0  0  0  0  0  0  0  0  0  0  0  0
   56.6629  159.1178   -0.9330 C   0  0  0  0  0  0  0  0  0  0  0  0
   57.6856  160.1314   -1.4401 C   0  0  0  0  0  0  0  0  0  0  0  0
   57.6454  159.9748   -2.9553 C   0  0  1  0  0  0  0  0  0  0  0  0
   57.2189  157.1261   -6.4673 C   0  0  0  0  0  0  0  0  0  0  0  0
   58.6324  158.9331   -3.4652 C   0  0  0  0  0  0  0  0  0  0  0  0
   56.2837  159.5649   -3.1948 N   0  0  0  0  0  0  0  0  0  0  0  0
   56.3362  155.9793   -6.6473 N   0  0  0  0  0  0  0  0  0  0  0  0
   52.7454  155.3327   -6.3073 N   0  0  0  0  0  0  0  0  0  0  0  0
   58.2626  158.4648   -4.7815 N   0  0  0  0  0  0  0  0  0  0  0  0
   58.0395  154.5085   -7.2838 O   0  0  0  0  0  0  0  0  0  0  0  0
   54.5362  158.5868   -1.9804 O   0  0  0  0  0  0  0  0  0  0  0  0
   56.9128  156.6951   -4.1139 O   0  0  0  0  0  0  0  0  0  0  0  0
   53.8460  153.0701   -7.0674 H   0  0  0  0  0  0  0  0  0  0  0  0
   56.2148  152.6714   -7.5120 H   0  0  0  0  0  0  0  0  0  0  0  0
   54.6901  157.1636   -6.0963 H   0  0  0  0  0  0  0  0  0  0  0  0
   56.1857  159.4501   -0.0079 H   0  0  0  0  0  0  0  0  0  0  0  0
   57.1096  158.1290   -0.7922 H   0  0  0  0  0  0  0  0  0  0  0  0
   57.3503  161.1408   -1.1682 H   0  0  0  0  0  0  0  0  0  0  0  0
   58.6791  159.9845   -1.0062 H   0  0  0  0  0  0  0  0  0  0  0  0
   57.8278  160.9238   -3.4637 H   0  0  0  0  0  0  0  0  0  0  0  0
   56.7642  158.0068   -6.9305 H   0  0  0  0  0  0  0  0  0  0  0  0
   58.1793  156.9191   -6.9483 H   0  0  0  0  0  0  0  0  0  0  0  0
   58.6552  158.0670   -2.7969 H   0  0  0  0  0  0  0  0  0  0  0  0
   59.6402  159.3534   -3.5319 H   0  0  0  0  0  0  0  0  0  0  0  0
   55.8316  159.6184   -4.1022 H   0  0  0  0  0  0  0  0  0  0  0  0
   52.1477  154.5458   -6.4317 H   0  0  0  0  0  0  0  0  0  0  0  0
   52.4116  156.2265   -6.0214 H   0  0  0  0  0  0  0  0  0  0  0  0
   58.6323  158.9562   -5.5901 H   0  0  0  0  0  0  0  0  0  0  0  0
  1  2  2  0  0  0  0
  1  4  1  0  0  0  0
  2  5  1  0  0  0  0
  3  4  2  0  0  0  0
  3 14  1  0  0  0  0
  4 15  1  0  0  0  0
  5 14  1  0  0  0  0
  5 17  2  0  0  0  0
  6  8  1  0  0  0  0
  6 13  1  0  0  0  0
  6 18  2  0  0  0  0
  7 11  1  0  0  0  0
  7 16  1  0  0  0  0
  7 19  2  0  0  0  0
  8  9  1  0  0  0  0
  9 10  1  0  0  0  0
 10 12  1  0  0  0  0
 10 13  1  0  0  0  0
 11 14  1  0  0  0  0
 12 16  1  0  0  0  0
  1 20  1  0  0  0  0
  2 21  1  0  0  0  0
  3 22  1  0  0  0  0
  8 23  1  0  0  0  0
  8 24  1  0  0  0  0
  9 25  1  0  0  0  0
  9 26  1  0  0  0  0
 10 27  1  0  0  0  0
 11 28  1  0  0  0  0
 11 29  1  0  0  0  0
 12 30  1  0  0  0  0
 12 31  1  0  0  0  0
 13 32  1  0  0  0  0
 15 33  1  0  0  0  0
 15 34  1  0  0  0  0
 16 35  1  0  0  0  0
M  END
> <FRED Chemgauss4 score>
-6.463875

$$$$
C70277932	P108339420
  -OEChem-05122015083D

 45 46  0     1  0  0  0  0  0999 V2000
   58.5403  157.8102   -4.4144 C   0  0  0  0  0  0  0  0  0  0  0  0
   56.4626  159.0413   -4.4839 C   0  0  0  0  0  0  0  0  0  0  0  0
   59.2344  158.9953   -4.1712 C   0  0  0  0  0  0  0  0  0  0  0  0
   57.1567  160.2264   -4.2406 C   0  0  0  0  0  0  0  0  0  0  0  0
   57.1544  157.8331   -4.5708 C   0  0  0  0  0  0  0  0  0  0  0  0
   58.5427  160.2034   -4.0842 C   0  0  0  0  0  0  0  0  0  0  0  0
   55.7679  154.8396   -6.4417 C   0  0  0  0  0  0  0  0  0  0  0  0
   54.3727  154.7976   -5.8302 C   0  0  0  0  0  0  0  0  0  0  0  0
   56.3948  156.5381   -4.8368 C   0  0  1  0  0  0  0  0  0  0  0  0
   54.9662  156.4465   -4.2299 C   0  0  2  0  0  0  0  0  0  0  0  0
   60.3361  161.7511   -4.9410 C   0  0  0  0  0  0  0  0  0  0  0  0
   60.0501  161.4071   -2.4639 C   0  0  0  0  0  0  0  0  0  0  0  0
   58.4046  162.7611   -3.7447 C   0  0  0  0  0  0  0  0  0  0  0  0
   55.8419  157.1419   -7.1830 C   0  0  0  0  0  0  0  0  0  0  0  0
   54.9546  156.6488   -2.7143 C   0  0  0  0  0  0  0  0  0  0  0  0
   59.2854  161.4700   -3.8224 C   0  0  0  0  0  0  0  0  0  0  0  0
   56.4171  156.1495   -6.2732 N   0  0  2  0  0  0  0  0  0  0  0  0
   53.6194  156.5618   -2.2278 N   0  0  0  0  0  0  0  0  0  0  0  0
   54.4343  155.1283   -4.4459 O   0  0  0  0  0  0  0  0  0  0  0  0
   59.0875  156.8735   -4.4812 H   0  0  0  0  0  0  0  0  0  0  0  0
   55.3826  159.0680   -4.6033 H   0  0  0  0  0  0  0  0  0  0  0  0
   60.3139  158.9678   -4.0491 H   0  0  0  0  0  0  0  0  0  0  0  0
   56.6101  161.1634   -4.1746 H   0  0  0  0  0  0  0  0  0  0  0  0
   56.3883  154.0499   -5.9783 H   0  0  0  0  0  0  0  0  0  0  0  0
   55.6860  154.5954   -7.5154 H   0  0  0  0  0  0  0  0  0  0  0  0
   53.6782  155.4744   -6.3466 H   0  0  0  0  0  0  0  0  0  0  0  0
   53.9624  153.7841   -5.9120 H   0  0  0  0  0  0  0  0  0  0  0  0
   57.0276  155.7097   -4.3021 H   0  0  0  0  0  0  0  0  0  0  0  0
   54.2916  157.1734   -4.6856 H   0  0  0  0  0  0  0  0  0  0  0  0
   60.8969  162.6779   -4.7723 H   0  0  0  0  0  0  0  0  0  0  0  0
   61.0707  160.9417   -5.0141 H   0  0  0  0  0  0  0  0  0  0  0  0
   59.8399  161.8340   -5.9152 H   0  0  0  0  0  0  0  0  0  0  0  0
   60.5971  162.3358   -2.2679 H   0  0  0  0  0  0  0  0  0  0  0  0
   59.3832  161.2419   -1.6095 H   0  0  0  0  0  0  0  0  0  0  0  0
   60.7821  160.5909   -2.4782 H   0  0  0  0  0  0  0  0  0  0  0  0
   58.9953  163.6646   -3.5509 H   0  0  0  0  0  0  0  0  0  0  0  0
   57.8674  162.9240   -4.6863 H   0  0  0  0  0  0  0  0  0  0  0  0
   57.6655  162.6809   -2.9390 H   0  0  0  0  0  0  0  0  0  0  0  0
   56.3345  158.1079   -7.0452 H   0  0  0  0  0  0  0  0  0  0  0  0
   54.7730  157.2607   -6.9858 H   0  0  0  0  0  0  0  0  0  0  0  0
   55.9737  156.8244   -8.2209 H   0  0  0  0  0  0  0  0  0  0  0  0
   55.3548  157.6290   -2.4932 H   0  0  0  0  0  0  0  0  0  0  0  0
   55.5560  155.8777   -2.2532 H   0  0  0  0  0  0  0  0  0  0  0  0
   52.8530  156.9222   -2.7867 H   0  0  0  0  0  0  0  0  0  0  0  0
   53.4501  156.3325   -1.2539 H   0  0  0  0  0  0  0  0  0  0  0  0
  1  3  2  0  0  0  0
  1  5  1  0  0  0  0
  2  4  1  0  0  0  0
  2  5  2  0  0  0  0
  3  6  1  0  0  0  0
  4  6  2  0  0  0  0
  5  9  1  0  0  0  0
  6 16  1  0  0  0  0
  7  8  1  0  0  0  0
  7 17  1  0  0  0  0
  8 19  1  0  0  0  0
  9 10  1  0  0  0  0
  9 17  1  0  0  0  0
 10 15  1  0  0  0  0
 10 19  1  0  0  0  0
 11 16  1  0  0  0  0
 12 16  1  0  0  0  0
 13 16  1  0  0  0  0
 14 17  1  0  0  0  0
 15 18  1  0  0  0  0
  1 20  1  0  0  0  0
  2 21  1  0  0  0  0
  3 22  1  0  0  0  0
  4 23  1  0  0  0  0
  7 24  1  0  0  0  0
  7 25  1  0  0  0  0
  8 26  1  0  0  0  0
  8 27  1  0  0  0  0
  9 28  1  0  0  0  0
 10 29  1  0  0  0  0
 11 30  1  0  0  0  0
 11 31  1  0  0  0  0
 11 32  1  0  0  0  0
 12 33  1  0  0  0  0
 12 34  1  0  0  0  0
 12 35  1  0  0  0  0
 13 36  1  0  0  0  0
 13 37  1  0  0  0  0
 13 38  1  0  0  0  0
 14 39  1  0  0  0  0
 14 40  1  0  0  0  0
 14 41  1  0  0  0  0
 15 42  1  0  0  0  0
 15 43  1  0  0  0  0
 18 44  1  0  0  0  0
 18 45  1  0  0  0  0
M  END
> <FRED Chemgauss4 score>
-6.463856

$$$$
C86525873	P135471827
  -OEChem-05122015083D

 26 26  0     1  0  0  0  0  0999 V2000
   53.9765  155.7835   -6.0693 C   0  0  0  0  0  0  0  0  0  0  0  0
   54.0644  156.1098   -4.0095 C   0  0  0  0  0  0  0  0  0  0  0  0
   57.0769  159.0655    1.0107 C   0  0  0  0  0  0  0  0  0  0  0  0
   57.4906  159.3468   -0.4226 C   0  0  0  0  0  0  0  0  0  0  0  0
   56.2918  159.4031   -1.3569 C   0  0  0  0  0  0  0  0  0  0  0  0
   54.7858  157.9659   -2.4474 C   0  0  0  0  0  0  0  0  0  0  0  0
   54.4710  156.4752   -2.5981 C   0  0  1  0  0  0  0  0  0  0  0  0
   54.7991  156.2568   -5.0875 N   0  0  0  0  0  0  0  0  0  0  0  0
   52.8610  155.5725   -4.3455 N   0  0  0  0  0  0  0  0  0  0  0  0
   52.7791  155.3529   -5.6666 N   0  0  0  0  0  0  0  0  0  0  0  0
   53.4557  156.0689   -1.6500 N   0  0  0  0  0  0  0  0  0  0  0  0
   55.6106  158.1572   -1.3058 O   0  0  0  0  0  0  0  0  0  0  0  0
   54.2753  155.7584   -7.1090 H   0  0  0  0  0  0  0  0  0  0  0  0
   56.3783  159.8262    1.3735 H   0  0  0  0  0  0  0  0  0  0  0  0
   56.5832  158.0911    1.0792 H   0  0  0  0  0  0  0  0  0  0  0  0
   57.9469  159.0529    1.6748 H   0  0  0  0  0  0  0  0  0  0  0  0
   58.1893  158.5747   -0.7666 H   0  0  0  0  0  0  0  0  0  0  0  0
   58.0407  160.2941   -0.4724 H   0  0  0  0  0  0  0  0  0  0  0  0
   55.5968  160.1929   -1.0540 H   0  0  0  0  0  0  0  0  0  0  0  0
   56.6089  159.5847   -2.3889 H   0  0  0  0  0  0  0  0  0  0  0  0
   55.3344  158.3400   -3.3189 H   0  0  0  0  0  0  0  0  0  0  0  0
   53.8780  158.5656   -2.3201 H   0  0  0  0  0  0  0  0  0  0  0  0
   55.3638  155.9030   -2.3158 H   0  0  0  0  0  0  0  0  0  0  0  0
   51.9571  154.9553   -6.1129 H   0  0  0  0  0  0  0  0  0  0  0  0
   53.4284  156.5153   -0.7521 H   0  0  0  0  0  0  0  0  0  0  0  0
   52.9416  155.2258   -1.8262 H   0  0  0  0  0  0  0  0  0  0  0  0
  1  8  2  0  0  0  0
  1 10  1  0  0  0  0
  2  7  1  0  0  0  0
  2  8  1  0  0  0  0
  2  9  2  0  0  0  0
  3  4  1  0  0  0  0
  4  5  1  0  0  0  0
  5 12  1  0  0  0  0
  6  7  1  0  0  0  0
  6 12  1  0  0  0  0
  7 11  1  0  0  0  0
  9 10  1  0  0  0  0
  1 13  1  0  0  0  0
  3 14  1  0  0  0  0
  3 15  1  0  0  0  0
  3 16  1  0  0  0  0
  4 17  1  0  0  0  0
  4 18  1  0  0  0  0
  5 19  1  0  0  0  0
  5 20  1  0  0  0  0
  6 21  1  0  0  0  0
  6 22  1  0  0  0  0
  7 23  1  0  0  0  0
 10 24  1  0  0  0  0
 11 25  1  0  0  0  0
 11 26  1  0  0  0  0
M  END
> <FRED Chemgauss4 score>
-6.462543

$$$$
C48630515	P72697623
  -OEChem-05122015083D

 26 27  0     1  0  0  0  0  0999 V2000
   56.8166  154.7980   -6.0192 C   0  0  0  0  0  0  0  0  0  0  0  0
   57.3728  153.0984   -7.3070 C   0  0  0  0  0  0  0  0  0  0  0  0
   55.7087  154.2111   -6.5836 C   0  0  0  0  0  0  0  0  0  0  0  0
   54.2549  156.4952   -4.7020 C   0  0  0  0  0  0  0  0  0  0  0  0
   54.9780  157.4474   -2.9504 C   0  0  0  0  0  0  0  0  0  0  0  0
   55.7387  158.3146   -2.0534 C   0  0  0  0  0  0  0  0  0  0  0  0
   54.2575  154.5957   -6.4133 C   0  0  0  0  0  0  0  0  0  0  0  0
   54.0610  156.1008   -6.1512 C   0  0  1  0  0  0  0  0  0  0  0  0
   53.5591  155.9684   -3.6753 N   0  5  0  0  0  0  0  0  0  0  0  0
   56.0617  153.1535   -7.3839 N   0  0  0  0  0  0  0  0  0  0  0  0
   55.1375  157.4107   -4.2802 N   0  0  0  0  0  0  0  0  0  0  0  0
   54.0265  156.5852   -2.5417 N   0  0  0  0  0  0  0  0  0  0  0  0
   57.8750  154.0741   -6.4914 N   0  0  0  0  0  0  0  0  0  0  0  0
   52.7013  156.4761   -6.6598 N   0  3  0  0  0  0  0  0  0  0  0  0
   56.9476  155.6344   -5.3478 H   0  0  0  0  0  0  0  0  0  0  0  0
   58.0109  152.3858   -7.8104 H   0  0  0  0  0  0  0  0  0  0  0  0
   55.2410  159.2932   -1.9061 H   0  0  0  0  0  0  0  0  0  0  0  0
   55.8815  157.8708   -1.0472 H   0  0  0  0  0  0  0  0  0  0  0  0
   56.7615  158.5259   -2.4269 H   0  0  0  0  0  0  0  0  0  0  0  0
   53.8086  153.9970   -5.6098 H   0  0  0  0  0  0  0  0  0  0  0  0
   53.7240  154.3018   -7.3278 H   0  0  0  0  0  0  0  0  0  0  0  0
   54.7491  156.6766   -6.7822 H   0  0  0  0  0  0  0  0  0  0  0  0
   58.8508  154.2315   -6.2778 H   0  0  0  0  0  0  0  0  0  0  0  0
   52.1102  156.7838   -5.8876 H   0  0  0  0  0  0  0  0  0  0  0  0
   52.2619  155.6733   -7.1106 H   0  0  0  0  0  0  0  0  0  0  0  0
   52.7772  157.2339   -7.3384 H   0  0  0  0  0  0  0  0  0  0  0  0
  1  3  2  0  0  0  0
  1 13  1  0  0  0  0
  2 10  2  0  0  0  0
  2 13  1  0  0  0  0
  3  7  1  0  0  0  0
  3 10  1  0  0  0  0
  4  8  1  0  0  0  0
  4  9  1  0  0  0  0
  4 11  2  0  0  0  0
  5  6  1  0  0  0  0
  5 11  1  0  0  0  0
  5 12  2  0  0  0  0
  7  8  1  0  0  0  0
  8 14  1  0  0  0  0
  9 12  1  0  0  0  0
  1 15  1  0  0  0  0
  2 16  1  0  0  0  0
  6 17  1  0  0  0  0
  6 18  1  0  0  0  0
  6 19  1  0  0  0  0
  7 20  1  0  0  0  0
  7 21  1  0  0  0  0
  8 22  1  0  0  0  0
 13 23  1  0  0  0  0
 14 24  1  0  0  0  0
 14 25  1  0  0  0  0
 14 26  1  0  0  0  0
M  CHG  2   9  -1  14   1
M  END
> <FRED Chemgauss4 score>
-6.458684

$$$$
C39094985	P59234642
  -OEChem-05122015083D

 19 19  0     1  0  0  0  0  0999 V2000
   54.4931  157.2752   -3.2391 C   0  0  0  0  0  0  0  0  0  0  0  0
   55.5923  156.6382   -5.2796 C   0  0  0  0  0  0  0  0  0  0  0  0
   55.4841  157.7807   -4.2653 C   0  0  1  0  0  0  0  0  0  0  0  0
   55.3315  155.3887   -4.4318 C   0  0  2  0  0  0  0  0  0  0  0  0
   54.8165  154.2267   -5.2705 C   0  0  0  0  0  0  0  0  0  0  0  0
   54.3990  155.9053   -3.4650 N   0  0  0  0  0  0  0  0  0  0  0  0
   55.0173  159.0177   -4.9233 N   0  3  0  0  0  0  0  0  0  0  0  0
   53.9482  155.0900   -2.4574 O   0  5  0  0  0  0  0  0  0  0  0  0
   53.9466  157.9609   -2.3884 O   0  0  0  0  0  0  0  0  0  0  0  0
   54.8293  156.7398   -6.0629 H   0  0  0  0  0  0  0  0  0  0  0  0
   56.5711  156.6079   -5.7690 H   0  0  0  0  0  0  0  0  0  0  0  0
   56.4420  157.9934   -3.7798 H   0  0  0  0  0  0  0  0  0  0  0  0
   56.2560  155.1050   -3.9105 H   0  0  0  0  0  0  0  0  0  0  0  0
   53.8994  154.5148   -5.7849 H   0  0  0  0  0  0  0  0  0  0  0  0
   54.6081  153.3683   -4.6315 H   0  0  0  0  0  0  0  0  0  0  0  0
   55.5630  153.9418   -6.0124 H   0  0  0  0  0  0  0  0  0  0  0  0
   54.4911  159.6124   -4.2705 H   0  0  0  0  0  0  0  0  0  0  0  0
   54.4000  158.8072   -5.7181 H   0  0  0  0  0  0  0  0  0  0  0  0
   55.8063  159.5713   -5.2809 H   0  0  0  0  0  0  0  0  0  0  0  0
  1  3  1  0  0  0  0
  1  6  1  0  0  0  0
  1  9  2  0  0  0  0
  2  3  1  0  0  0  0
  2  4  1  0  0  0  0
  3  7  1  0  0  0  0
  4  5  1  0  0  0  0
  4  6  1  0  0  0  0
  6  8  1  0  0  0  0
  2 10  1  0  0  0  0
  2 11  1  0  0  0  0
  3 12  1  0  0  0  0
  4 13  1  0  0  0  0
  5 14  1  0  0  0  0
  5 15  1  0  0  0  0
  5 16  1  0  0  0  0
  7 17  1  0  0  0  0
  7 18  1  0  0  0  0
  7 19  1  0  0  0  0
M  CHG  2   7   1   8  -1
M  END
> <FRED Chemgauss4 score>
-6.458390

$$$$
C37036752	P55054206
  -OEChem-05122015083D

 40 41  0     1  0  0  0  0  0999 V2000
   55.8048  158.1254   -2.0381 C   0  0  0  0  0  0  0  0  0  0  0  0
   56.6788  157.9697   -3.0935 C   0  0  0  0  0  0  0  0  0  0  0  0
   54.4363  157.1709   -3.4615 C   0  0  0  0  0  0  0  0  0  0  0  0
   59.3351  160.9993   -3.5878 C   0  0  0  0  0  0  0  0  0  0  0  0
   60.7789  161.9073   -6.0900 C   0  0  0  0  0  0  0  0  0  0  0  0
   61.8428  162.8609   -6.6214 C   0  0  0  0  0  0  0  0  0  0  0  0
   60.6635  163.6198   -4.3522 C   0  0  0  0  0  0  0  0  0  0  0  0
   59.8039  162.7700   -5.2857 C   0  0  2  0  0  0  0  0  0  0  0  0
   56.1080  158.7273   -0.7215 C   0  0  0  0  0  0  0  0  0  0  0  0
   57.0054  161.2549   -5.9245 C   0  0  0  0  0  0  0  0  0  0  0  0
   58.2321  160.2192   -2.8934 C   0  0  0  0  0  0  0  0  0  0  0  0
   57.4663  162.1496   -4.8246 C   0  0  0  0  0  0  0  0  0  0  0  0
   54.5183  157.6684   -2.2474 N   0  0  0  0  0  0  0  0  0  0  0  0
   53.3067  156.6332   -3.9940 N   0  0  0  0  0  0  0  0  0  0  0  0
   58.8890  161.9449   -4.5374 N   0  0  0  0  0  0  0  0  0  0  0  0
   60.5256  160.8074   -3.3275 O   0  0  0  0  0  0  0  0  0  0  0  0
   61.9535  165.3754   -5.8419 O   0  0  0  0  0  0  0  0  0  0  0  0
   63.2910  163.6420   -4.5599 O   0  0  0  0  0  0  0  0  0  0  0  0
   55.8683  157.2199   -4.4058 S   0  0  0  0  0  0  0  0  0  0  0  0
   58.3815  158.4360   -3.1728 S   0  0  0  0  0  0  0  0  0  0  0  0
   62.1157  164.0396   -5.3067 S   0  0  0  0  0  0  0  0  0  0  0  0
   60.2484  161.4534   -6.9309 H   0  0  0  0  0  0  0  0  0  0  0  0
   61.2259  161.1105   -5.4952 H   0  0  0  0  0  0  0  0  0  0  0  0
   62.7863  162.3401   -6.8070 H   0  0  0  0  0  0  0  0  0  0  0  0
   61.5221  163.3837   -7.5245 H   0  0  0  0  0  0  0  0  0  0  0  0
   60.1582  164.5574   -4.1113 H   0  0  0  0  0  0  0  0  0  0  0  0
   60.9638  163.1054   -3.4397 H   0  0  0  0  0  0  0  0  0  0  0  0
   59.1959  163.3970   -5.9346 H   0  0  0  0  0  0  0  0  0  0  0  0
   55.9185  159.8120   -0.7308 H   0  0  0  0  0  0  0  0  0  0  0  0
   55.4978  158.2848    0.0828 H   0  0  0  0  0  0  0  0  0  0  0  0
   57.1597  158.5706   -0.4307 H   0  0  0  0  0  0  0  0  0  0  0  0
   57.5608  161.4527   -6.8477 H   0  0  0  0  0  0  0  0  0  0  0  0
   57.1276  160.2020   -5.6481 H   0  0  0  0  0  0  0  0  0  0  0  0
   55.9419  161.4311   -6.1255 H   0  0  0  0  0  0  0  0  0  0  0  0
   58.2825  160.3975   -1.8155 H   0  0  0  0  0  0  0  0  0  0  0  0
   57.2599  160.5390   -3.2789 H   0  0  0  0  0  0  0  0  0  0  0  0
   56.9078  161.9468   -3.9058 H   0  0  0  0  0  0  0  0  0  0  0  0
   57.3290  163.2004   -5.0959 H   0  0  0  0  0  0  0  0  0  0  0  0
   52.4440  156.5416   -3.4468 H   0  0  0  0  0  0  0  0  0  0  0  0
   53.2997  156.2133   -4.9298 H   0  0  0  0  0  0  0  0  0  0  0  0
  1  2  2  0  0  0  0
  1  9  1  0  0  0  0
  1 13  1  0  0  0  0
  2 19  1  0  0  0  0
  2 20  1  0  0  0  0
  3 13  2  0  0  0  0
  3 14  1  0  0  0  0
  3 19  1  0  0  0  0
  4 11  1  0  0  0  0
  4 15  1  0  0  0  0
  4 16  2  0  0  0  0
  5  6  1  0  0  0  0
  5  8  1  0  0  0  0
  6 21  1  0  0  0  0
  7  8  1  0  0  0  0
  7 21  1  0  0  0  0
  8 15  1  0  0  0  0
 10 12  1  0  0  0  0
 11 20  1  0  0  0  0
 12 15  1  0  0  0  0
 17 21  2  0  0  0  0
 18 21  2  0  0  0  0
  5 22  1  0  0  0  0
  5 23  1  0  0  0  0
  6 24  1  0  0  0  0
  6 25  1  0  0  0  0
  7 26  1  0  0  0  0
  7 27  1  0  0  0  0
  8 28  1  0  0  0  0
  9 29  1  0  0  0  0
  9 30  1  0  0  0  0
  9 31  1  0  0  0  0
 10 32  1  0  0  0  0
 10 33  1  0  0  0  0
 10 34  1  0  0  0  0
 11 35  1  0  0  0  0
 11 36  1  0  0  0  0
 12 37  1  0  0  0  0
 12 38  1  0  0  0  0
 14 39  1  0  0  0  0
 14 40  1  0  0  0  0
M  END
> <FRED Chemgauss4 score>
-6.448346

$$$$
C87441208	P136788672
  -OEChem-05122015083D

 17 17  0     0  0  0  0  0  0999 V2000
   58.9907  160.0054   -2.3968 C   0  0  0  0  0  0  0  0  0  0  0  0
   57.8671  159.6275   -2.2066 C   0  0  0  0  0  0  0  0  0  0  0  0
   54.3796  156.1420   -6.2157 C   0  0  0  0  0  0  0  0  0  0  0  0
   54.3938  157.0976   -4.3599 C   0  0  0  0  0  0  0  0  0  0  0  0
   54.7351  157.8669   -3.1357 C   0  0  0  0  0  0  0  0  0  0  0  0
   56.4959  159.1693   -1.9698 C   0  0  0  0  0  0  0  0  0  0  0  0
   55.1733  156.8925   -5.3961 N   0  0  0  0  0  0  0  0  0  0  0  0
   53.1929  156.4925   -4.5637 N   0  0  0  0  0  0  0  0  0  0  0  0
   53.1581  155.8700   -5.7517 N   0  0  0  0  0  0  0  0  0  0  0  0
   56.0073  158.4153   -3.1018 N   0  0  0  0  0  0  0  0  0  0  0  0
   53.9062  157.9583   -2.2339 O   0  0  0  0  0  0  0  0  0  0  0  0
   59.9872  160.3407   -2.5661 H   0  0  0  0  0  0  0  0  0  0  0  0
   54.7177  155.7888   -7.1808 H   0  0  0  0  0  0  0  0  0  0  0  0
   55.8341  160.0234   -1.7963 H   0  0  0  0  0  0  0  0  0  0  0  0
   56.4598  158.5392   -1.0754 H   0  0  0  0  0  0  0  0  0  0  0  0
   52.3449  155.3618   -6.0883 H   0  0  0  0  0  0  0  0  0  0  0  0
   56.6607  158.2444   -3.8592 H   0  0  0  0  0  0  0  0  0  0  0  0
  1  2  3  0  0  0  0
  2  6  1  0  0  0  0
  3  7  2  0  0  0  0
  3  9  1  0  0  0  0
  4  5  1  0  0  0  0
  4  7  1  0  0  0  0
  4  8  2  0  0  0  0
  5 10  1  0  0  0  0
  5 11  2  0  0  0  0
  6 10  1  0  0  0  0
  8  9  1  0  0  0  0
  1 12  1  0  0  0  0
  3 13  1  0  0  0  0
  6 14  1  0  0  0  0
  6 15  1  0  0  0  0
  9 16  1  0  0  0  0
 10 17  1  0  0  0  0
M  END
> <FRED Chemgauss4 score>
-6.447538

$$$$
C52925068	P79325338
  -OEChem-05122015083D

 33 33  0     0  0  0  0  0  0999 V2000
   57.7934  156.9784   -4.8916 C   0  0  0  0  0  0  0  0  0  0  0  0
   56.6800  157.1001   -4.0603 C   0  0  0  0  0  0  0  0  0  0  0  0
   56.4864  155.6767   -6.4518 C   0  0  0  0  0  0  0  0  0  0  0  0
   57.6966  156.2668   -6.0874 C   0  0  0  0  0  0  0  0  0  0  0  0
   55.4697  156.5100   -4.4247 C   0  0  0  0  0  0  0  0  0  0  0  0
   55.3729  155.7983   -5.6205 C   0  0  0  0  0  0  0  0  0  0  0  0
   53.5651  159.0849   -4.6024 C   0  0  0  0  0  0  0  0  0  0  0  0
   52.8644  159.5231   -5.8755 C   0  0  0  0  0  0  0  0  0  0  0  0
   50.7834  161.4531   -6.9213 C   0  0  0  0  0  0  0  0  0  0  0  0
   50.7569  159.9397   -6.8281 C   0  0  0  0  0  0  0  0  0  0  0  0
   58.8229  156.1441   -6.9273 N   0  0  0  0  0  0  0  0  0  0  0  0
   53.0883  157.7506   -4.2114 N   0  0  0  0  0  0  0  0  0  0  0  0
   53.4499  155.4142   -3.1880 O   0  0  0  0  0  0  0  0  0  0  0  0
   54.5943  157.3995   -2.1519 O   0  0  0  0  0  0  0  0  0  0  0  0
   50.1406  162.0000   -5.7762 O   0  0  0  0  0  0  0  0  0  0  0  0
   51.4588  159.5347   -5.6609 O   0  0  0  0  0  0  0  0  0  0  0  0
   54.1114  156.7021   -3.3339 S   0  0  0  0  0  0  0  0  0  0  0  0
   53.7574  154.9710   -6.1765 Br  0  0  0  0  0  0  0  0  0  0  0  0
   58.7317  157.4421   -4.5979 H   0  0  0  0  0  0  0  0  0  0  0  0
   56.7697  157.6574   -3.1315 H   0  0  0  0  0  0  0  0  0  0  0  0
   56.4204  155.1234   -7.3864 H   0  0  0  0  0  0  0  0  0  0  0  0
   54.6493  159.0340   -4.7435 H   0  0  0  0  0  0  0  0  0  0  0  0
   53.3422  159.7794   -3.7867 H   0  0  0  0  0  0  0  0  0  0  0  0
   53.0771  158.8154   -6.6828 H   0  0  0  0  0  0  0  0  0  0  0  0
   53.1816  160.5241   -6.1854 H   0  0  0  0  0  0  0  0  0  0  0  0
   50.2507  161.8030   -7.8108 H   0  0  0  0  0  0  0  0  0  0  0  0
   51.8147  161.8174   -6.9419 H   0  0  0  0  0  0  0  0  0  0  0  0
   51.2442  159.4823   -7.6949 H   0  0  0  0  0  0  0  0  0  0  0  0
   49.7271  159.5788   -6.7512 H   0  0  0  0  0  0  0  0  0  0  0  0
   59.6711  156.6111   -6.6775 H   0  0  0  0  0  0  0  0  0  0  0  0
   58.7285  155.6719   -7.8038 H   0  0  0  0  0  0  0  0  0  0  0  0
   52.0711  157.6471   -4.1109 H   0  0  0  0  0  0  0  0  0  0  0  0
   50.1767  162.9652   -5.8704 H   0  0  0  0  0  0  0  0  0  0  0  0
  1  2  1  0  0  0  0
  1  4  2  0  0  0  0
  2  5  2  0  0  0  0
  3  4  1  0  0  0  0
  3  6  2  0  0  0  0
  4 11  1  0  0  0  0
  5  6  1  0  0  0  0
  5 17  1  0  0  0  0
  6 18  1  0  0  0  0
  7  8  1  0  0  0  0
  7 12  1  0  0  0  0
  8 16  1  0  0  0  0
  9 10  1  0  0  0  0
  9 15  1  0  0  0  0
 10 16  1  0  0  0  0
 12 17  1  0  0  0  0
 13 17  2  0  0  0  0
 14 17  2  0  0  0  0
  1 19  1  0  0  0  0
  2 20  1  0  0  0  0
  3 21  1  0  0  0  0
  7 22  1  0  0  0  0
  7 23  1  0  0  0  0
  8 24  1  0  0  0  0
  8 25  1  0  0  0  0
  9 26  1  0  0  0  0
  9 27  1  0  0  0  0
 10 28  1  0  0  0  0
 10 29  1  0  0  0  0
 11 30  1  0  0  0  0
 11 31  1  0  0  0  0
 12 32  1  0  0  0  0
 15 33  1  0  0  0  0
M  END
> <FRED Chemgauss4 score>
-6.447477

$$$$
C84057443	P131527988
  -OEChem-05122015083D

 25 26  0     1  0  0  0  0  0999 V2000
   55.7755  154.0421   -6.4994 C   0  0  0  0  0  0  0  0  0  0  0  0
   54.5521  153.7941   -7.0732 C   0  0  0  0  0  0  0  0  0  0  0  0
   54.5165  155.5929   -5.8109 C   0  0  0  0  0  0  0  0  0  0  0  0
   56.8713  153.1539   -6.7721 C   0  0  0  0  0  0  0  0  0  0  0  0
   55.1733  151.9610   -8.1693 C   0  0  0  0  0  0  0  0  0  0  0  0
   54.0353  156.7439   -3.6089 C   0  0  0  0  0  0  0  0  0  0  0  0
   53.9506  156.7854   -5.1520 C   0  0  1  0  0  0  0  0  0  0  0  0
   55.7575  155.1574   -5.7151 N   0  0  0  0  0  0  0  0  0  0  0  0
   54.1882  152.7908   -7.9022 N   0  0  0  0  0  0  0  0  0  0  0  0
   53.7460  154.7986   -6.6245 N   0  0  0  0  0  0  0  0  0  0  0  0
   56.4729  152.1216   -7.6329 N   0  0  0  0  0  0  0  0  0  0  0  0
   55.0081  150.8759   -8.9905 N   0  0  0  0  0  0  0  0  0  0  0  0
   54.5625  158.0228   -5.6313 N   0  0  0  0  0  0  0  0  0  0  0  0
   57.9951  153.2949   -6.3066 O   0  0  0  0  0  0  0  0  0  0  0  0
   53.4439  157.9103   -3.0455 O   0  0  0  0  0  0  0  0  0  0  0  0
   53.4865  155.8764   -3.2262 H   0  0  0  0  0  0  0  0  0  0  0  0
   55.0730  156.6833   -3.2631 H   0  0  0  0  0  0  0  0  0  0  0  0
   52.8779  156.9166   -5.4082 H   0  0  0  0  0  0  0  0  0  0  0  0
   52.7687  154.9332   -6.8481 H   0  0  0  0  0  0  0  0  0  0  0  0
   57.1737  151.4332   -7.8925 H   0  0  0  0  0  0  0  0  0  0  0  0
   54.1121  150.7209   -9.3910 H   0  0  0  0  0  0  0  0  0  0  0  0
   55.7906  150.2857   -9.1539 H   0  0  0  0  0  0  0  0  0  0  0  0
   54.5262  158.8232   -5.0387 H   0  0  0  0  0  0  0  0  0  0  0  0
   54.8073  158.0810   -6.5956 H   0  0  0  0  0  0  0  0  0  0  0  0
   53.5274  157.8263   -2.0826 H   0  0  0  0  0  0  0  0  0  0  0  0
  1  2  2  0  0  0  0
  1  4  1  0  0  0  0
  1  8  1  0  0  0  0
  2  9  1  0  0  0  0
  2 10  1  0  0  0  0
  3  7  1  0  0  0  0
  3  8  2  0  0  0  0
  3 10  1  0  0  0  0
  4 11  1  0  0  0  0
  4 14  2  0  0  0  0
  5  9  2  0  0  0  0
  5 11  1  0  0  0  0
  5 12  1  0  0  0  0
  6  7  1  0  0  0  0
  6 15  1  0  0  0  0
  7 13  1  0  0  0  0
  6 16  1  0  0  0  0
  6 17  1  0  0  0  0
  7 18  1  0  0  0  0
 10 19  1  0  0  0  0
 11 20  1  0  0  0  0
 12 21  1  0  0  0  0
 12 22  1  0  0  0  0
 13 23  1  0  0  0  0
 13 24  1  0  0  0  0
 15 25  1  0  0  0  0
M  END
> <FRED Chemgauss4 score>
-6.446538

$$$$
C87121096	P136358264
  -OEChem-05122015083D

 33 33  0     1  0  0  0  0  0999 V2000
   56.5878  153.5773   -6.6470 C   0  0  0  0  0  0  0  0  0  0  0  0
   55.1634  153.8831   -6.1768 C   0  0  0  0  0  0  0  0  0  0  0  0
   57.5396  154.7697   -6.5374 C   0  0  0  0  0  0  0  0  0  0  0  0
   55.7228  156.2926   -5.6382 C   0  0  0  0  0  0  0  0  0  0  0  0
   55.1412  154.9717   -5.1015 C   0  0  1  0  0  0  0  0  0  0  0  0
   56.8044  156.0938   -6.7081 C   0  0  1  0  0  0  0  0  0  0  0  0
   58.5824  157.4351   -8.3674 C   0  0  0  0  0  0  0  0  0  0  0  0
   53.7659  155.9282   -3.2258 C   0  0  0  0  0  0  0  0  0  0  0  0
   53.7308  155.1821   -4.5549 C   0  0  1  0  0  0  0  0  0  0  0  0
   53.9316  157.3438   -3.4668 N   0  0  0  0  0  0  0  0  0  0  0  0
   59.0305  157.1221   -5.8112 O   0  0  0  0  0  0  0  0  0  0  0  0
   57.1779  158.6727   -6.5430 O   0  0  0  0  0  0  0  0  0  0  0  0
   52.9933  155.9552   -5.4971 O   0  0  0  0  0  0  0  0  0  0  0  0
   57.9421  157.4518   -6.7108 S   0  0  0  0  0  0  0  0  0  0  0  0
   56.9872  152.7268   -6.0681 H   0  0  0  0  0  0  0  0  0  0  0  0
   56.5568  153.2328   -7.6950 H   0  0  0  0  0  0  0  0  0  0  0  0
   54.5613  154.1942   -7.0404 H   0  0  0  0  0  0  0  0  0  0  0  0
   54.7091  152.9630   -5.7899 H   0  0  0  0  0  0  0  0  0  0  0  0
   58.0575  154.7330   -5.5787 H   0  0  0  0  0  0  0  0  0  0  0  0
   58.2947  154.6815   -7.3212 H   0  0  0  0  0  0  0  0  0  0  0  0
   54.9097  156.8862   -6.0781 H   0  0  0  0  0  0  0  0  0  0  0  0
   56.1226  156.8838   -4.8044 H   0  0  0  0  0  0  0  0  0  0  0  0
   55.7705  154.6345   -4.2581 H   0  0  0  0  0  0  0  0  0  0  0  0
   56.3421  156.1269   -7.6909 H   0  0  0  0  0  0  0  0  0  0  0  0
   59.3026  158.2488   -8.4664 H   0  0  0  0  0  0  0  0  0  0  0  0
   59.0667  156.4727   -8.5396 H   0  0  0  0  0  0  0  0  0  0  0  0
   57.7505  157.5742   -9.0594 H   0  0  0  0  0  0  0  0  0  0  0  0
   52.8356  155.7756   -2.6679 H   0  0  0  0  0  0  0  0  0  0  0  0
   54.5989  155.5804   -2.6062 H   0  0  0  0  0  0  0  0  0  0  0  0
   53.2336  154.2138   -4.4438 H   0  0  0  0  0  0  0  0  0  0  0  0
   54.3372  157.9132   -2.7462 H   0  0  0  0  0  0  0  0  0  0  0  0
   53.4606  157.7596   -4.2500 H   0  0  0  0  0  0  0  0  0  0  0  0
   52.1054  156.0724   -5.1247 H   0  0  0  0  0  0  0  0  0  0  0  0
  1  2  1  0  0  0  0
  1  3  1  0  0  0  0
  2  5  1  0  0  0  0
  3  6  1  0  0  0  0
  4  5  1  0  0  0  0
  4  6  1  0  0  0  0
  5  9  1  0  0  0  0
  6 14  1  0  0  0  0
  7 14  1  0  0  0  0
  8  9  1  0  0  0  0
  8 10  1  0  0  0  0
  9 13  1  0  0  0  0
 11 14  2  0  0  0  0
 12 14  2  0  0  0  0
  1 15  1  0  0  0  0
  1 16  1  0  0  0  0
  2 17  1  0  0  0  0
  2 18  1  0  0  0  0
  3 19  1  0  0  0  0
  3 20  1  0  0  0  0
  4 21  1  0  0  0  0
  4 22  1  0  0  0  0
  5 23  1  0  0  0  0
  6 24  1  0  0  0  0
  7 25  1  0  0  0  0
  7 26  1  0  0  0  0
  7 27  1  0  0  0  0
  8 28  1  0  0  0  0
  8 29  1  0  0  0  0
  9 30  1  0  0  0  0
 10 31  1  0  0  0  0
 10 32  1  0  0  0  0
 13 33  1  0  0  0  0
M  END
> <FRED Chemgauss4 score>
-6.446161

$$$$
C85133553	P133223209
  -OEChem-05122015083D

 34 34  0     1  0  0  0  0  0999 V2000
   54.7285  157.2118   -4.0167 C   0  0  0  0  0  0  0  0  0  0  0  0
   56.0073  156.4327   -6.5308 C   0  0  0  0  0  0  0  0  0  0  0  0
   54.8940  155.5678   -5.9744 C   0  0  0  0  0  0  0  0  0  0  0  0
   56.8334  156.9754   -5.3803 C   0  0  0  0  0  0  0  0  0  0  0  0
   53.9925  156.4216   -5.0985 C   0  0  1  0  0  0  0  0  0  0  0  0
   57.7909  160.7177   -3.0212 C   0  0  0  0  0  0  0  0  0  0  0  0
   55.2919  160.5379   -3.2520 C   0  0  0  0  0  0  0  0  0  0  0  0
   56.7773  158.4305   -3.3815 C   0  0  0  0  0  0  0  0  0  0  0  0
   55.1308  162.0220   -3.5665 C   0  0  0  0  0  0  0  0  0  0  0  0
   56.6477  159.9327   -3.6753 C   0  0  2  0  0  0  0  0  0  0  0  0
   56.0405  157.5897   -4.3158 N   0  0  0  0  0  0  0  0  0  0  0  0
   52.9886  155.6104   -4.4557 N   0  0  0  0  0  0  0  0  0  0  0  0
   54.1331  157.5725   -2.9970 O   0  0  0  0  0  0  0  0  0  0  0  0
   53.8472  162.4703   -3.1581 O   0  0  0  0  0  0  0  0  0  0  0  0
   56.6436  155.8508   -7.2064 H   0  0  0  0  0  0  0  0  0  0  0  0
   55.5834  157.2598   -7.1133 H   0  0  0  0  0  0  0  0  0  0  0  0
   54.3199  155.1284   -6.7990 H   0  0  0  0  0  0  0  0  0  0  0  0
   55.3267  154.7364   -5.4025 H   0  0  0  0  0  0  0  0  0  0  0  0
   57.4134  156.1672   -4.9188 H   0  0  0  0  0  0  0  0  0  0  0  0
   57.5409  157.7198   -5.7627 H   0  0  0  0  0  0  0  0  0  0  0  0
   53.4875  157.1747   -5.7272 H   0  0  0  0  0  0  0  0  0  0  0  0
   57.7585  160.6443   -1.9291 H   0  0  0  0  0  0  0  0  0  0  0  0
   58.7632  160.3441   -3.3592 H   0  0  0  0  0  0  0  0  0  0  0  0
   57.7325  161.7786   -3.2874 H   0  0  0  0  0  0  0  0  0  0  0  0
   54.4667  159.9833   -3.7148 H   0  0  0  0  0  0  0  0  0  0  0  0
   55.1898  160.4081   -2.1665 H   0  0  0  0  0  0  0  0  0  0  0  0
   56.4001  158.2037   -2.3784 H   0  0  0  0  0  0  0  0  0  0  0  0
   57.8238  158.1122   -3.4114 H   0  0  0  0  0  0  0  0  0  0  0  0
   55.2235  162.1831   -4.6455 H   0  0  0  0  0  0  0  0  0  0  0  0
   55.8942  162.6246   -3.0660 H   0  0  0  0  0  0  0  0  0  0  0  0
   56.7558  160.0598   -4.7606 H   0  0  0  0  0  0  0  0  0  0  0  0
   52.6053  154.8487   -4.9696 H   0  0  0  0  0  0  0  0  0  0  0  0
   52.5754  155.9566   -3.6186 H   0  0  0  0  0  0  0  0  0  0  0  0
   53.7953  163.4148   -3.3788 H   0  0  0  0  0  0  0  0  0  0  0  0
  1  5  1  0  0  0  0
  1 11  1  0  0  0  0
  1 13  2  0  0  0  0
  2  3  1  0  0  0  0
  2  4  1  0  0  0  0
  3  5  1  0  0  0  0
  4 11  1  0  0  0  0
  5 12  1  0  0  0  0
  6 10  1  0  0  0  0
  7  9  1  0  0  0  0
  7 10  1  0  0  0  0
  8 10  1  0  0  0  0
  8 11  1  0  0  0  0
  9 14  1  0  0  0  0
  2 15  1  0  0  0  0
  2 16  1  0  0  0  0
  3 17  1  0  0  0  0
  3 18  1  0  0  0  0
  4 19  1  0  0  0  0
  4 20  1  0  0  0  0
  5 21  1  0  0  0  0
  6 22  1  0  0  0  0
  6 23  1  0  0  0  0
  6 24  1  0  0  0  0
  7 25  1  0  0  0  0
  7 26  1  0  0  0  0
  8 27  1  0  0  0  0
  8 28  1  0  0  0  0
  9 29  1  0  0  0  0
  9 30  1  0  0  0  0
 10 31  1  0  0  0  0
 12 32  1  0  0  0  0
 12 33  1  0  0  0  0
 14 34  1  0  0  0  0
M  END
> <FRED Chemgauss4 score>
-6.444503

$$$$
C80052265	P125060489
  -OEChem-05122015083D

 30 31  0     0  0  0  0  0  0999 V2000
   57.5562  157.8349   -5.6802 C   0  0  0  0  0  0  0  0  0  0  0  0
   58.1473  159.0935   -5.5709 C   0  0  0  0  0  0  0  0  0  0  0  0
   60.0635  158.3013   -6.8110 C   0  0  0  0  0  0  0  0  0  0  0  0
   55.5820  155.1688   -4.8976 C   0  0  0  0  0  0  0  0  0  0  0  0
   58.2188  156.8094   -6.3549 C   0  0  0  0  0  0  0  0  0  0  0  0
   54.2363  155.4182   -5.0131 C   0  0  0  0  0  0  0  0  0  0  0  0
   59.4009  159.3267   -6.1363 C   0  0  0  0  0  0  0  0  0  0  0  0
   59.4724  157.0426   -6.9203 C   0  0  0  0  0  0  0  0  0  0  0  0
   54.0862  155.9462   -6.3095 C   0  0  0  0  0  0  0  0  0  0  0  0
   52.8439  156.3906   -6.9654 C   0  0  0  0  0  0  0  0  0  0  0  0
   57.5527  155.4744   -6.4475 C   0  0  0  0  0  0  0  0  0  0  0  0
   53.1941  155.1819   -3.9999 C   0  0  0  0  0  0  0  0  0  0  0  0
   55.2441  156.0280   -6.9701 N   0  0  0  0  0  0  0  0  0  0  0  0
   56.1347  155.5482   -6.0854 N   0  0  0  0  0  0  0  0  0  0  0  0
   52.7421  156.3986   -3.3576 N   0  0  0  0  0  0  0  0  0  0  0  0
   60.1291  160.8803   -6.0028 Cl  0  0  0  0  0  0  0  0  0  0  0  0
   60.3228  155.7978   -7.7611 Cl  0  0  0  0  0  0  0  0  0  0  0  0
   56.5798  157.6630   -5.2344 H   0  0  0  0  0  0  0  0  0  0  0  0
   57.6192  159.8834   -5.0430 H   0  0  0  0  0  0  0  0  0  0  0  0
   61.0416  158.4846   -7.2508 H   0  0  0  0  0  0  0  0  0  0  0  0
   56.1785  154.7636   -4.0916 H   0  0  0  0  0  0  0  0  0  0  0  0
   52.6509  157.4598   -6.7737 H   0  0  0  0  0  0  0  0  0  0  0  0
   52.8775  156.2494   -8.0602 H   0  0  0  0  0  0  0  0  0  0  0  0
   51.9625  155.8250   -6.6145 H   0  0  0  0  0  0  0  0  0  0  0  0
   57.6185  155.0574   -7.4638 H   0  0  0  0  0  0  0  0  0  0  0  0
   58.0297  154.7356   -5.7859 H   0  0  0  0  0  0  0  0  0  0  0  0
   52.2970  154.7007   -4.4319 H   0  0  0  0  0  0  0  0  0  0  0  0
   53.5366  154.5097   -3.1915 H   0  0  0  0  0  0  0  0  0  0  0  0
   52.3720  156.3428   -2.4274 H   0  0  0  0  0  0  0  0  0  0  0  0
   52.6187  157.2211   -3.9179 H   0  0  0  0  0  0  0  0  0  0  0  0
  1  2  2  0  0  0  0
  1  5  1  0  0  0  0
  2  7  1  0  0  0  0
  3  7  2  0  0  0  0
  3  8  1  0  0  0  0
  4  6  2  0  0  0  0
  4 14  1  0  0  0  0
  5  8  2  0  0  0  0
  5 11  1  0  0  0  0
  6  9  1  0  0  0  0
  6 12  1  0  0  0  0
  7 16  1  0  0  0  0
  8 17  1  0  0  0  0
  9 10  1  0  0  0  0
  9 13  2  0  0  0  0
 11 14  1  0  0  0  0
 12 15  1  0  0  0  0
 13 14  1  0  0  0  0
  1 18  1  0  0  0  0
  2 19  1  0  0  0  0
  3 20  1  0  0  0  0
  4 21  1  0  0  0  0
 10 22  1  0  0  0  0
 10 23  1  0  0  0  0
 10 24  1  0  0  0  0
 11 25  1  0  0  0  0
 11 26  1  0  0  0  0
 12 27  1  0  0  0  0
 12 28  1  0  0  0  0
 15 29  1  0  0  0  0
 15 30  1  0  0  0  0
M  END
> <FRED Chemgauss4 score>
-6.443966

$$$$
C39343967	P155915743
  -OEChem-05122015083D

 31 32  0     1  0  0  0  0  0999 V2000
   59.3676  157.8236   -6.0205 C   0  0  0  0  0  0  0  0  0  0  0  0
   58.3776  156.9496   -6.1915 C   0  0  0  0  0  0  0  0  0  0  0  0
   59.2450  158.7402   -4.8571 C   0  0  0  0  0  0  0  0  0  0  0  0
   57.2004  157.7718   -4.2437 C   0  0  0  0  0  0  0  0  0  0  0  0
   55.1011  156.4032   -6.4591 C   0  0  2  0  0  0  0  0  0  0  0  0
   54.0347  155.3877   -6.0722 C   0  0  1  0  0  0  0  0  0  0  0  0
   54.3290  155.0700   -4.6057 C   0  0  2  0  0  0  0  0  0  0  0  0
   56.2682  155.9073   -5.6090 C   0  0  1  0  0  0  0  0  0  0  0  0
   53.4430  155.7525   -3.5747 C   0  0  0  0  0  0  0  0  0  0  0  0
   58.2195  158.6883   -4.0480 N   0  0  0  0  0  0  0  0  0  0  0  0
   57.2851  156.8827   -5.3428 N   0  0  0  0  0  0  0  0  0  0  0  0
   60.2470  159.6584   -4.6448 N   0  0  0  0  0  0  0  0  0  0  0  0
   54.7277  157.7824   -6.1435 N   0  0  0  0  0  0  0  0  0  0  0  0
   56.2409  157.7374   -3.4711 O   0  0  0  0  0  0  0  0  0  0  0  0
   55.7007  155.4491   -4.3717 O   0  0  0  0  0  0  0  0  0  0  0  0
   52.7198  155.8343   -6.3282 O   0  0  0  0  0  0  0  0  0  0  0  0
   53.8453  155.3395   -2.2787 O   0  0  0  0  0  0  0  0  0  0  0  0
   60.2243  157.8826   -6.6783 H   0  0  0  0  0  0  0  0  0  0  0  0
   58.3872  156.2445   -7.0152 H   0  0  0  0  0  0  0  0  0  0  0  0
   55.3382  156.3054   -7.4846 H   0  0  0  0  0  0  0  0  0  0  0  0
   54.1585  154.4317   -6.7112 H   0  0  0  0  0  0  0  0  0  0  0  0
   54.2814  153.9800   -4.4529 H   0  0  0  0  0  0  0  0  0  0  0  0
   56.7763  155.0480   -6.1007 H   0  0  0  0  0  0  0  0  0  0  0  0
   52.3975  155.4734   -3.7276 H   0  0  0  0  0  0  0  0  0  0  0  0
   53.5415  156.8384   -3.6477 H   0  0  0  0  0  0  0  0  0  0  0  0
   61.0099  159.6700   -5.2777 H   0  0  0  0  0  0  0  0  0  0  0  0
   60.1629  160.2687   -3.8681 H   0  0  0  0  0  0  0  0  0  0  0  0
   53.7852  158.0727   -6.3142 H   0  0  0  0  0  0  0  0  0  0  0  0
   55.4562  158.4447   -5.9633 H   0  0  0  0  0  0  0  0  0  0  0  0
   52.6648  156.0042   -7.2819 H   0  0  0  0  0  0  0  0  0  0  0  0
   53.2633  155.7904   -1.6446 H   0  0  0  0  0  0  0  0  0  0  0  0
  1  2  2  0  0  0  0
  1  3  1  0  0  0  0
  2 11  1  0  0  0  0
  3 10  2  0  0  0  0
  3 12  1  0  0  0  0
  4 10  1  0  0  0  0
  4 11  1  0  0  0  0
  4 14  2  0  0  0  0
  5  6  1  0  0  0  0
  5  8  1  0  0  0  0
  5 13  1  0  0  0  0
  6  7  1  0  0  0  0
  6 16  1  0  0  0  0
  7  9  1  0  0  0  0
  7 15  1  0  0  0  0
  8 11  1  0  0  0  0
  8 15  1  0  0  0  0
  9 17  1  0  0  0  0
  1 18  1  0  0  0  0
  2 19  1  0  0  0  0
  5 20  1  0  0  0  0
  6 21  1  0  0  0  0
  7 22  1  0  0  0  0
  8 23  1  0  0  0  0
  9 24  1  0  0  0  0
  9 25  1  0  0  0  0
 12 26  1  0  0  0  0
 12 27  1  0  0  0  0
 13 28  1  0  0  0  0
 13 29  1  0  0  0  0
 16 30  1  0  0  0  0
 17 31  1  0  0  0  0
M  END
> <FRED Chemgauss4 score>
-6.441307

$$$$
C01719293	P06382694
  -OEChem-05122015083D

 16 16  0     0  0  0  0  0  0999 V2000
   54.7536  155.7713   -5.7011 C   0  0  0  0  0  0  0  0  0  0  0  0
   53.9165  157.7808   -5.8454 C   0  0  0  0  0  0  0  0  0  0  0  0
   53.6885  156.0292   -2.8316 C   0  0  0  0  0  0  0  0  0  0  0  0
   54.9829  154.3933   -5.1803 C   0  0  0  0  0  0  0  0  0  0  0  0
   55.3741  156.2759   -6.7308 N   0  0  0  0  0  0  0  0  0  0  0  0
   54.8654  157.5447   -6.8466 N   0  0  0  0  0  0  0  0  0  0  0  0
   53.8723  156.6118   -5.1256 N   0  0  0  0  0  0  0  0  0  0  0  0
   53.0992  156.3534   -4.0445 N   0  0  0  0  0  0  0  0  0  0  0  0
   53.1203  155.7736   -1.7771 O   0  0  0  0  0  0  0  0  0  0  0  0
   53.0708  159.1924   -5.6375 S   0  0  0  0  0  0  0  0  0  0  0  0
   54.7886  156.0231   -2.9091 H   0  0  0  0  0  0  0  0  0  0  0  0
   55.7764  154.4057   -4.4322 H   0  0  0  0  0  0  0  0  0  0  0  0
   55.2717  153.7298   -5.9969 H   0  0  0  0  0  0  0  0  0  0  0  0
   54.0682  154.0104   -4.7254 H   0  0  0  0  0  0  0  0  0  0  0  0
   55.1837  158.1644   -7.5805 H   0  0  0  0  0  0  0  0  0  0  0  0
   52.0766  156.3975   -4.1254 H   0  0  0  0  0  0  0  0  0  0  0  0
  1  4  1  0  0  0  0
  1  5  2  0  0  0  0
  1  7  1  0  0  0  0
  2  6  1  0  0  0  0
  2  7  1  0  0  0  0
  2 10  2  0  0  0  0
  3  8  1  0  0  0  0
  3  9  2  0  0  0  0
  5  6  1  0  0  0  0
  7  8  1  0  0  0  0
  3 11  1  0  0  0  0
  4 12  1  0  0  0  0
  4 13  1  0  0  0  0
  4 14  1  0  0  0  0
  6 15  1  0  0  0  0
  8 16  1  0  0  0  0
M  END
> <FRED Chemgauss4 score>
-6.440180

$$$$
C97135058	P153777836
  -OEChem-05122015083D

 28 29  0     1  0  0  0  0  0999 V2000
   57.9981  156.0552   -5.8367 C   0  0  0  0  0  0  0  0  0  0  0  0
   58.5366  155.2614   -6.8493 C   0  0  0  0  0  0  0  0  0  0  0  0
   56.6745  155.8722   -5.4364 C   0  0  0  0  0  0  0  0  0  0  0  0
   57.7515  154.2846   -7.4618 C   0  0  0  0  0  0  0  0  0  0  0  0
   55.8894  154.8954   -6.0488 C   0  0  0  0  0  0  0  0  0  0  0  0
   56.4279  154.1015   -7.0615 C   0  0  0  0  0  0  0  0  0  0  0  0
   53.9003  156.2866   -3.5491 C   0  0  0  0  0  0  0  0  0  0  0  0
   54.2197  155.0843   -4.1479 C   0  0  0  0  0  0  0  0  0  0  0  0
   53.7197  157.5820   -4.2339 C   0  0  0  0  0  0  0  0  0  0  0  0
   54.4752  154.7164   -5.6031 C   0  0  1  0  0  0  0  0  0  0  0  0
   55.6065  153.0499   -7.7323 C   0  0  0  0  0  0  0  0  0  0  0  0
   53.7349  156.2431   -2.1737 N   0  0  0  0  0  0  0  0  0  0  0  0
   53.9224  155.0213   -1.7006 N   0  0  0  0  0  0  0  0  0  0  0  0
   53.5443  155.4726   -6.4598 N   0  0  0  0  0  0  0  0  0  0  0  0
   56.2827  152.3645   -8.7001 F   0  0  0  0  0  0  0  0  0  0  0  0
   55.1406  152.0942   -6.8762 F   0  0  0  0  0  0  0  0  0  0  0  0
   54.5023  153.5622   -8.3479 F   0  0  0  0  0  0  0  0  0  0  0  0
   54.2988  153.9116   -2.8977 S   0  0  0  0  0  0  0  0  0  0  0  0
   58.6095  156.8161   -5.3608 H   0  0  0  0  0  0  0  0  0  0  0  0
   59.5673  155.4046   -7.1608 H   0  0  0  0  0  0  0  0  0  0  0  0
   56.2639  156.4970   -4.6475 H   0  0  0  0  0  0  0  0  0  0  0  0
   58.1803  153.6707   -8.2496 H   0  0  0  0  0  0  0  0  0  0  0  0
   52.6709  157.7259   -4.5409 H   0  0  0  0  0  0  0  0  0  0  0  0
   54.0003  158.4328   -3.5899 H   0  0  0  0  0  0  0  0  0  0  0  0
   54.3479  157.6632   -5.1373 H   0  0  0  0  0  0  0  0  0  0  0  0
   54.1639  153.6649   -5.7361 H   0  0  0  0  0  0  0  0  0  0  0  0
   52.6570  155.6976   -6.0809 H   0  0  0  0  0  0  0  0  0  0  0  0
   53.7645  155.5396   -7.4234 H   0  0  0  0  0  0  0  0  0  0  0  0
  1  2  1  0  0  0  0
  1  3  2  0  0  0  0
  2  4  2  0  0  0  0
  3  5  1  0  0  0  0
  4  6  1  0  0  0  0
  5  6  2  0  0  0  0
  5 10  1  0  0  0  0
  6 11  1  0  0  0  0
  7  8  2  0  0  0  0
  7  9  1  0  0  0  0
  7 12  1  0  0  0  0
  8 10  1  0  0  0  0
  8 18  1  0  0  0  0
 10 14  1  0  0  0  0
 11 15  1  0  0  0  0
 11 16  1  0  0  0  0
 11 17  1  0  0  0  0
 12 13  2  0  0  0  0
 13 18  1  0  0  0  0
  1 19  1  0  0  0  0
  2 20  1  0  0  0  0
  3 21  1  0  0  0  0
  4 22  1  0  0  0  0
  9 23  1  0  0  0  0
  9 24  1  0  0  0  0
  9 25  1  0  0  0  0
 10 26  1  0  0  0  0
 14 27  1  0  0  0  0
 14 28  1  0  0  0  0
M  END
> <FRED Chemgauss4 score>
-6.436187

$$$$
C05510479	P08181956
  -OEChem-05122015083D

 25 24  0     0  0  0  0  0  0999 V2000
   56.4372  156.1525   -5.8658 C   0  0  0  0  0  0  0  0  0  0  0  0
   58.1290  154.3363   -6.4363 C   0  0  0  0  0  0  0  0  0  0  0  0
   54.2633  157.4374   -5.7361 C   0  0  0  0  0  0  0  0  0  0  0  0
   54.5259  155.4025   -4.3794 C   0  0  0  0  0  0  0  0  0  0  0  0
   52.9788  156.9034   -6.3432 C   0  0  0  0  0  0  0  0  0  0  0  0
   54.1367  156.1693   -3.1287 C   0  0  0  0  0  0  0  0  0  0  0  0
   56.8466  154.8178   -5.9513 N   0  0  0  0  0  0  0  0  0  0  0  0
   55.1263  156.3193   -5.3508 N   0  0  0  0  0  0  0  0  0  0  0  0
   52.1290  157.9916   -6.6831 O   0  0  0  0  0  0  0  0  0  0  0  0
   53.5220  155.2821   -2.2030 O   0  0  0  0  0  0  0  0  0  0  0  0
   57.4330  157.4361   -6.3426 S   0  0  0  0  0  0  0  0  0  0  0  0
   58.0527  154.0626   -7.4919 H   0  0  0  0  0  0  0  0  0  0  0  0
   58.4427  153.4573   -5.8667 H   0  0  0  0  0  0  0  0  0  0  0  0
   58.8900  155.1138   -6.3285 H   0  0  0  0  0  0  0  0  0  0  0  0
   54.8096  158.0623   -6.4497 H   0  0  0  0  0  0  0  0  0  0  0  0
   54.0451  158.0248   -4.8391 H   0  0  0  0  0  0  0  0  0  0  0  0
   55.2544  154.6175   -4.1529 H   0  0  0  0  0  0  0  0  0  0  0  0
   53.6422  154.9494   -4.8388 H   0  0  0  0  0  0  0  0  0  0  0  0
   52.4522  156.2779   -5.6157 H   0  0  0  0  0  0  0  0  0  0  0  0
   53.1744  156.3143   -7.2451 H   0  0  0  0  0  0  0  0  0  0  0  0
   53.4129  156.9512   -3.3787 H   0  0  0  0  0  0  0  0  0  0  0  0
   55.0079  156.6288   -2.6508 H   0  0  0  0  0  0  0  0  0  0  0  0
   56.2379  154.1034   -5.5698 H   0  0  0  0  0  0  0  0  0  0  0  0
   51.3235  157.6082   -7.0659 H   0  0  0  0  0  0  0  0  0  0  0  0
   53.2900  155.8098   -1.4220 H   0  0  0  0  0  0  0  0  0  0  0  0
  1  7  1  0  0  0  0
  1  8  1  0  0  0  0
  1 11  2  0  0  0  0
  2  7  1  0  0  0  0
  3  5  1  0  0  0  0
  3  8  1  0  0  0  0
  4  6  1  0  0  0  0
  4  8  1  0  0  0  0
  5  9  1  0  0  0  0
  6 10  1  0  0  0  0
  2 12  1  0  0  0  0
  2 13  1  0  0  0  0
  2 14  1  0  0  0  0
  3 15  1  0  0  0  0
  3 16  1  0  0  0  0
  4 17  1  0  0  0  0
  4 18  1  0  0  0  0
  5 19  1  0  0  0  0
  5 20  1  0  0  0  0
  6 21  1  0  0  0  0
  6 22  1  0  0  0  0
  7 23  1  0  0  0  0
  9 24  1  0  0  0  0
 10 25  1  0  0  0  0
M  END
> <FRED Chemgauss4 score>
-6.435456

$$$$
C84057443	P131532065
  -OEChem-05122015083D

 25 26  0     1  0  0  0  0  0999 V2000
   54.7033  157.0966   -5.4003 C   0  0  0  0  0  0  0  0  0  0  0  0
   55.2253  155.9940   -4.7655 C   0  0  0  0  0  0  0  0  0  0  0  0
   56.8088  156.7816   -5.9437 C   0  0  0  0  0  0  0  0  0  0  0  0
   53.3590  157.5505   -5.2437 C   0  0  0  0  0  0  0  0  0  0  0  0
   53.2250  155.5941   -3.7245 C   0  0  0  0  0  0  0  0  0  0  0  0
   59.2720  157.2737   -5.6341 C   0  0  0  0  0  0  0  0  0  0  0  0
   58.0984  157.0371   -6.6125 C   0  0  1  0  0  0  0  0  0  0  0  0
   56.5379  155.8012   -5.1071 N   0  0  0  0  0  0  0  0  0  0  0  0
   54.4669  155.1987   -3.8877 N   0  0  0  0  0  0  0  0  0  0  0  0
   55.7257  157.5950   -6.1536 N   0  0  0  0  0  0  0  0  0  0  0  0
   52.6704  156.7177   -4.3629 N   0  0  0  0  0  0  0  0  0  0  0  0
   52.3644  154.9178   -2.8979 N   0  0  0  0  0  0  0  0  0  0  0  0
   58.4592  155.9686   -7.5418 N   0  0  0  0  0  0  0  0  0  0  0  0
   52.8704  158.5295   -5.7971 O   0  0  0  0  0  0  0  0  0  0  0  0
   60.4726  157.5428   -6.3510 O   0  0  0  0  0  0  0  0  0  0  0  0
   59.0628  158.1426   -5.0005 H   0  0  0  0  0  0  0  0  0  0  0  0
   59.4432  156.4035   -4.9912 H   0  0  0  0  0  0  0  0  0  0  0  0
   58.0434  157.9339   -7.2656 H   0  0  0  0  0  0  0  0  0  0  0  0
   55.6915  158.4090   -6.7536 H   0  0  0  0  0  0  0  0  0  0  0  0
   51.6980  156.9384   -4.1682 H   0  0  0  0  0  0  0  0  0  0  0  0
   52.7040  154.1154   -2.4212 H   0  0  0  0  0  0  0  0  0  0  0  0
   51.4351  155.2568   -2.8081 H   0  0  0  0  0  0  0  0  0  0  0  0
   59.4221  155.8525   -7.7705 H   0  0  0  0  0  0  0  0  0  0  0  0
   57.7287  155.5354   -8.0632 H   0  0  0  0  0  0  0  0  0  0  0  0
   61.1667  157.6814   -5.6876 H   0  0  0  0  0  0  0  0  0  0  0  0
  1  2  2  0  0  0  0
  1  4  1  0  0  0  0
  1 10  1  0  0  0  0
  2  8  1  0  0  0  0
  2  9  1  0  0  0  0
  3  7  1  0  0  0  0
  3  8  2  0  0  0  0
  3 10  1  0  0  0  0
  4 11  1  0  0  0  0
  4 14  2  0  0  0  0
  5  9  2  0  0  0  0
  5 11  1  0  0  0  0
  5 12  1  0  0  0  0
  6  7  1  0  0  0  0
  6 15  1  0  0  0  0
  7 13  1  0  0  0  0
  6 16  1  0  0  0  0
  6 17  1  0  0  0  0
  7 18  1  0  0  0  0
 10 19  1  0  0  0  0
 11 20  1  0  0  0  0
 12 21  1  0  0  0  0
 12 22  1  0  0  0  0
 13 23  1  0  0  0  0
 13 24  1  0  0  0  0
 15 25  1  0  0  0  0
M  END
> <FRED Chemgauss4 score>
-6.433831

$$$$
C94794084	P148574506
  -OEChem-05122015083D

 36 37  0     1  0  0  0  0  0999 V2000
   56.1514  155.6196   -4.8056 C   0  0  0  0  0  0  0  0  0  0  0  0
   55.2083  155.5379   -4.0661 C   0  0  0  0  0  0  0  0  0  0  0  0
   57.7098  154.7138   -6.5154 C   0  0  0  0  0  0  0  0  0  0  0  0
   58.8510  155.1073   -7.2723 C   0  0  0  0  0  0  0  0  0  0  0  0
   57.2700  155.7186   -5.6820 C   0  0  0  0  0  0  0  0  0  0  0  0
   59.2399  156.3981   -6.9888 C   0  0  0  0  0  0  0  0  0  0  0  0
   59.0331  159.1881   -8.2720 C   0  0  0  0  0  0  0  0  0  0  0  0
   59.2102  160.6840   -8.1572 C   0  0  0  0  0  0  0  0  0  0  0  0
   61.0266  159.5640   -7.0602 C   0  0  0  0  0  0  0  0  0  0  0  0
   60.1965  160.8385   -6.9964 C   0  0  1  0  0  0  0  0  0  0  0  0
   62.0051  162.2008   -5.9592 C   0  0  0  0  0  0  0  0  0  0  0  0
   54.0614  155.4361   -3.1649 C   0  0  0  0  0  0  0  0  0  0  0  0
   60.3847  157.1779   -7.5681 C   0  0  0  0  0  0  0  0  0  0  0  0
   61.0340  162.1018   -7.0885 C   0  0  0  0  0  0  0  0  0  0  0  0
   60.1064  158.5971   -7.6112 N   0  0  0  0  0  0  0  0  0  0  0  0
   53.2754  156.6377   -3.1909 N   0  0  0  0  0  0  0  0  0  0  0  0
   58.1262  158.6410   -8.8814 O   0  0  0  0  0  0  0  0  0  0  0  0
   58.2313  157.1296   -5.8140 S   0  0  0  0  0  0  0  0  0  0  0  0
   57.2424  153.7391   -6.5864 H   0  0  0  0  0  0  0  0  0  0  0  0
   59.3580  154.4725   -7.9879 H   0  0  0  0  0  0  0  0  0  0  0  0
   59.5808  161.1055   -9.0935 H   0  0  0  0  0  0  0  0  0  0  0  0
   58.2399  161.1234   -7.9084 H   0  0  0  0  0  0  0  0  0  0  0  0
   61.9139  159.6543   -7.6920 H   0  0  0  0  0  0  0  0  0  0  0  0
   61.3149  159.2220   -6.0616 H   0  0  0  0  0  0  0  0  0  0  0  0
   59.6394  160.8768   -6.0275 H   0  0  0  0  0  0  0  0  0  0  0  0
   61.4612  162.2003   -5.0073 H   0  0  0  0  0  0  0  0  0  0  0  0
   62.5826  163.1294   -6.0196 H   0  0  0  0  0  0  0  0  0  0  0  0
   62.6924  161.3482   -5.9582 H   0  0  0  0  0  0  0  0  0  0  0  0
   54.3884  155.2779   -2.1331 H   0  0  0  0  0  0  0  0  0  0  0  0
   53.4059  154.6084   -3.4507 H   0  0  0  0  0  0  0  0  0  0  0  0
   61.2927  157.0301   -6.9733 H   0  0  0  0  0  0  0  0  0  0  0  0
   60.6074  156.8493   -8.5887 H   0  0  0  0  0  0  0  0  0  0  0  0
   61.5727  162.1021   -8.0388 H   0  0  0  0  0  0  0  0  0  0  0  0
   60.3700  162.9692   -7.0804 H   0  0  0  0  0  0  0  0  0  0  0  0
   53.7407  157.5302   -3.2555 H   0  0  0  0  0  0  0  0  0  0  0  0
   52.2990  156.5938   -2.9420 H   0  0  0  0  0  0  0  0  0  0  0  0
  1  2  3  0  0  0  0
  1  5  1  0  0  0  0
  2 12  1  0  0  0  0
  3  4  1  0  0  0  0
  3  5  2  0  0  0  0
  4  6  2  0  0  0  0
  5 18  1  0  0  0  0
  6 13  1  0  0  0  0
  6 18  1  0  0  0  0
  7  8  1  0  0  0  0
  7 15  1  0  0  0  0
  7 17  2  0  0  0  0
  8 10  1  0  0  0  0
  9 10  1  0  0  0  0
  9 15  1  0  0  0  0
 10 14  1  0  0  0  0
 11 14  1  0  0  0  0
 12 16  1  0  0  0  0
 13 15  1  0  0  0  0
  3 19  1  0  0  0  0
  4 20  1  0  0  0  0
  8 21  1  0  0  0  0
  8 22  1  0  0  0  0
  9 23  1  0  0  0  0
  9 24  1  0  0  0  0
 10 25  1  0  0  0  0
 11 26  1  0  0  0  0
 11 27  1  0  0  0  0
 11 28  1  0  0  0  0
 12 29  1  0  0  0  0
 12 30  1  0  0  0  0
 13 31  1  0  0  0  0
 13 32  1  0  0  0  0
 14 33  1  0  0  0  0
 14 34  1  0  0  0  0
 16 35  1  0  0  0  0
 16 36  1  0  0  0  0
M  END
> <FRED Chemgauss4 score>
-6.432076

$$$$
C94233960	P147687780
  -OEChem-05122015083D

 43 43  0     1  0  0  0  0  0999 V2000
   53.9982  156.4703   -3.2925 C   0  0  0  0  0  0  0  0  0  0  0  0
   58.5784  159.7100   -0.5197 C   0  0  0  0  0  0  0  0  0  0  0  0
   57.8372  161.3002   -2.1809 C   0  0  0  0  0  0  0  0  0  0  0  0
   57.1357  159.5626   -0.0203 C   0  0  0  0  0  0  0  0  0  0  0  0
   56.3959  161.1500   -1.6783 C   0  0  0  0  0  0  0  0  0  0  0  0
   55.3396  154.2290   -6.2420 C   0  0  0  0  0  0  0  0  0  0  0  0
   53.3729  154.1214   -3.9511 C   0  0  0  0  0  0  0  0  0  0  0  0
   60.1699  161.1777   -1.5822 C   0  0  0  0  0  0  0  0  0  0  0  0
   55.3342  155.2273   -5.0877 C   0  0  0  0  0  0  0  0  0  0  0  0
   55.9900  158.7776   -2.0147 C   0  0  0  0  0  0  0  0  0  0  0  0
   54.6375  158.7903   -2.7070 C   0  0  0  0  0  0  0  0  0  0  0  0
   53.9455  155.4545   -4.4513 C   0  0  2  0  0  0  0  0  0  0  0  0
   58.7967  161.0395   -1.1014 N   0  0  0  0  0  0  0  0  0  0  0  0
   56.1200  159.8576   -1.0387 N   0  0  0  0  0  0  0  0  0  0  0  0
   53.0288  155.9982   -5.4378 N   0  0  0  0  0  0  0  0  0  0  0  0
   54.5052  157.7100   -3.6554 N   0  0  0  0  0  0  0  0  0  0  0  0
   53.6259  156.1947   -2.1515 O   0  0  0  0  0  0  0  0  0  0  0  0
   59.2756  159.5249    0.3086 H   0  0  0  0  0  0  0  0  0  0  0  0
   58.7605  158.9388   -1.2778 H   0  0  0  0  0  0  0  0  0  0  0  0
   57.9932  160.5841   -2.9968 H   0  0  0  0  0  0  0  0  0  0  0  0
   57.9792  162.3065   -2.5978 H   0  0  0  0  0  0  0  0  0  0  0  0
   56.9919  158.5391    0.3827 H   0  0  0  0  0  0  0  0  0  0  0  0
   57.0009  160.2471    0.8392 H   0  0  0  0  0  0  0  0  0  0  0  0
   56.2008  161.9648   -0.9546 H   0  0  0  0  0  0  0  0  0  0  0  0
   55.6956  161.3204   -2.5217 H   0  0  0  0  0  0  0  0  0  0  0  0
   54.6324  154.5493   -7.0140 H   0  0  0  0  0  0  0  0  0  0  0  0
   55.0397  153.2302   -5.9105 H   0  0  0  0  0  0  0  0  0  0  0  0
   56.3275  154.1578   -6.7069 H   0  0  0  0  0  0  0  0  0  0  0  0
   53.3193  153.3717   -4.7477 H   0  0  0  0  0  0  0  0  0  0  0  0
   53.9879  153.7059   -3.1444 H   0  0  0  0  0  0  0  0  0  0  0  0
   52.3586  154.2526   -3.5551 H   0  0  0  0  0  0  0  0  0  0  0  0
   60.3191  162.1714   -2.0126 H   0  0  0  0  0  0  0  0  0  0  0  0
   60.3793  160.4270   -2.3490 H   0  0  0  0  0  0  0  0  0  0  0  0
   60.8746  161.0421   -0.7573 H   0  0  0  0  0  0  0  0  0  0  0  0
   56.0498  154.8811   -4.3322 H   0  0  0  0  0  0  0  0  0  0  0  0
   55.7225  156.1827   -5.4647 H   0  0  0  0  0  0  0  0  0  0  0  0
   56.8079  158.8867   -2.7340 H   0  0  0  0  0  0  0  0  0  0  0  0
   56.1259  157.8367   -1.4725 H   0  0  0  0  0  0  0  0  0  0  0  0
   53.8348  158.6730   -1.9725 H   0  0  0  0  0  0  0  0  0  0  0  0
   54.4764  159.7269   -3.2505 H   0  0  0  0  0  0  0  0  0  0  0  0
   53.3763  156.6702   -6.0929 H   0  0  0  0  0  0  0  0  0  0  0  0
   52.0475  155.8474   -5.3113 H   0  0  0  0  0  0  0  0  0  0  0  0
   54.8013  157.8797   -4.6112 H   0  0  0  0  0  0  0  0  0  0  0  0
  1 12  1  0  0  0  0
  1 16  1  0  0  0  0
  1 17  2  0  0  0  0
  2  4  1  0  0  0  0
  2 13  1  0  0  0  0
  3  5  1  0  0  0  0
  3 13  1  0  0  0  0
  4 14  1  0  0  0  0
  5 14  1  0  0  0  0
  6  9  1  0  0  0  0
  7 12  1  0  0  0  0
  8 13  1  0  0  0  0
  9 12  1  0  0  0  0
 10 11  1  0  0  0  0
 10 14  1  0  0  0  0
 11 16  1  0  0  0  0
 12 15  1  0  0  0  0
  2 18  1  0  0  0  0
  2 19  1  0  0  0  0
  3 20  1  0  0  0  0
  3 21  1  0  0  0  0
  4 22  1  0  0  0  0
  4 23  1  0  0  0  0
  5 24  1  0  0  0  0
  5 25  1  0  0  0  0
  6 26  1  0  0  0  0
  6 27  1  0  0  0  0
  6 28  1  0  0  0  0
  7 29  1  0  0  0  0
  7 30  1  0  0  0  0
  7 31  1  0  0  0  0
  8 32  1  0  0  0  0
  8 33  1  0  0  0  0
  8 34  1  0  0  0  0
  9 35  1  0  0  0  0
  9 36  1  0  0  0  0
 10 37  1  0  0  0  0
 10 38  1  0  0  0  0
 11 39  1  0  0  0  0
 11 40  1  0  0  0  0
 15 41  1  0  0  0  0
 15 42  1  0  0  0  0
 16 43  1  0  0  0  0
M  END
> <FRED Chemgauss4 score>
-6.429183

$$$$
C01532575	P57081966
  -OEChem-05122015083D

 20 20  0     1  0  0  0  0  0999 V2000
   55.2325  156.7169   -5.2979 C   0  0  0  0  0  0  0  0  0  0  0  0
   53.7667  156.3945   -5.5590 C   0  0  1  0  0  0  0  0  0  0  0  0
   53.2026  155.5385   -4.4262 C   0  0  1  0  0  0  0  0  0  0  0  0
   53.4907  156.1667   -3.0637 C   0  0  2  0  0  0  0  0  0  0  0  0
   54.9733  156.5276   -2.9381 C   0  0  1  0  0  0  0  0  0  0  0  0
   55.3887  157.3513   -4.0259 O   0  0  0  0  0  0  0  0  0  0  0  0
   53.0564  157.6312   -5.6406 O   0  0  0  0  0  0  0  0  0  0  0  0
   51.7952  155.3822   -4.5846 O   0  0  0  0  0  0  0  0  0  0  0  0
   53.1469  155.2226   -2.0499 O   0  0  0  0  0  0  0  0  0  0  0  0
   55.1488  157.2275   -1.7070 O   0  0  0  0  0  0  0  0  0  0  0  0
   55.8552  155.8158   -5.3325 H   0  0  0  0  0  0  0  0  0  0  0  0
   55.6061  157.4194   -6.0500 H   0  0  0  0  0  0  0  0  0  0  0  0
   53.6460  155.8897   -6.5235 H   0  0  0  0  0  0  0  0  0  0  0  0
   53.6418  154.5341   -4.4668 H   0  0  0  0  0  0  0  0  0  0  0  0
   52.8565  157.0481   -2.9087 H   0  0  0  0  0  0  0  0  0  0  0  0
   55.5932  155.6231   -2.8938 H   0  0  0  0  0  0  0  0  0  0  0  0
   53.4521  158.1250   -6.3742 H   0  0  0  0  0  0  0  0  0  0  0  0
   51.6596  154.9475   -5.4409 H   0  0  0  0  0  0  0  0  0  0  0  0
   53.6995  154.4414   -2.2038 H   0  0  0  0  0  0  0  0  0  0  0  0
   56.0913  157.4459   -1.6475 H   0  0  0  0  0  0  0  0  0  0  0  0
  1  2  1  0  0  0  0
  1  6  1  0  0  0  0
  2  3  1  0  0  0  0
  2  7  1  0  0  0  0
  3  4  1  0  0  0  0
  3  8  1  0  0  0  0
  4  5  1  0  0  0  0
  4  9  1  0  0  0  0
  5  6  1  0  0  0  0
  5 10  1  0  0  0  0
  1 11  1  0  0  0  0
  1 12  1  0  0  0  0
  2 13  1  0  0  0  0
  3 14  1  0  0  0  0
  4 15  1  0  0  0  0
  5 16  1  0  0  0  0
  7 17  1  0  0  0  0
  8 18  1  0  0  0  0
  9 19  1  0  0  0  0
 10 20  1  0  0  0  0
M  END
> <FRED Chemgauss4 score>
-6.428624

$$$$
C70239150	P108268807
  -OEChem-05122015083D

 39 40  0     0  0  0  0  0  0999 V2000
   54.9230  154.4577   -6.4652 C   0  0  0  0  0  0  0  0  0  0  0  0
   59.5400  160.3537   -6.9310 C   0  0  0  0  0  0  0  0  0  0  0  0
   61.4017  159.3883   -5.7313 C   0  0  0  0  0  0  0  0  0  0  0  0
   54.0135  155.4093   -6.0039 C   0  0  0  0  0  0  0  0  0  0  0  0
   60.0847  161.6254   -6.7530 C   0  0  0  0  0  0  0  0  0  0  0  0
   61.9465  160.6600   -5.5533 C   0  0  0  0  0  0  0  0  0  0  0  0
   55.8451  156.8300   -5.3229 C   0  0  0  0  0  0  0  0  0  0  0  0
   56.2937  154.6922   -6.3553 C   0  0  0  0  0  0  0  0  0  0  0  0
   60.1985  159.2351   -6.4201 C   0  0  0  0  0  0  0  0  0  0  0  0
   54.4745  156.5954   -5.4328 C   0  0  0  0  0  0  0  0  0  0  0  0
   56.7547  155.8784   -5.7842 C   0  0  0  0  0  0  0  0  0  0  0  0
   61.2879  161.7785   -6.0642 C   0  0  0  0  0  0  0  0  0  0  0  0
   57.2178  153.6769   -6.8445 C   0  0  0  0  0  0  0  0  0  0  0  0
   59.4645  153.2440   -7.8626 C   0  0  0  0  0  0  0  0  0  0  0  0
   59.6104  157.8590   -6.6139 C   0  0  0  0  0  0  0  0  0  0  0  0
   58.6704  157.4485   -5.4832 C   0  0  0  0  0  0  0  0  0  0  0  0
   53.5544  157.5576   -4.9671 N   0  0  0  0  0  0  0  0  0  0  0  0
   58.1387  156.1343   -5.6619 N   0  0  0  0  0  0  0  0  0  0  0  0
   58.4528  154.1243   -7.3239 N   0  0  0  0  0  0  0  0  0  0  0  0
   56.8916  152.4783   -6.8445 O   0  0  0  0  0  0  0  0  0  0  0  0
   61.9597  163.3474   -5.8449 Cl  0  0  0  0  0  0  0  0  0  0  0  0
   54.5511  153.5370   -6.9075 H   0  0  0  0  0  0  0  0  0  0  0  0
   58.6020  160.2426   -7.4687 H   0  0  0  0  0  0  0  0  0  0  0  0
   61.9211  158.5219   -5.3304 H   0  0  0  0  0  0  0  0  0  0  0  0
   52.9473  155.2166   -6.0940 H   0  0  0  0  0  0  0  0  0  0  0  0
   59.5606  162.4877   -7.1569 H   0  0  0  0  0  0  0  0  0  0  0  0
   62.8847  160.7641   -5.0144 H   0  0  0  0  0  0  0  0  0  0  0  0
   56.2037  157.7551   -4.8762 H   0  0  0  0  0  0  0  0  0  0  0  0
   60.1736  152.9629   -7.0797 H   0  0  0  0  0  0  0  0  0  0  0  0
   60.0096  153.7430   -8.6684 H   0  0  0  0  0  0  0  0  0  0  0  0
   59.0026  152.3368   -8.2614 H   0  0  0  0  0  0  0  0  0  0  0  0
   60.4328  157.1356   -6.6824 H   0  0  0  0  0  0  0  0  0  0  0  0
   59.0860  157.8118   -7.5769 H   0  0  0  0  0  0  0  0  0  0  0  0
   59.2115  157.4433   -4.5317 H   0  0  0  0  0  0  0  0  0  0  0  0
   57.8243  158.1374   -5.3910 H   0  0  0  0  0  0  0  0  0  0  0  0
   52.5755  157.3985   -5.0950 H   0  0  0  0  0  0  0  0  0  0  0  0
   53.8968  158.4237   -4.6030 H   0  0  0  0  0  0  0  0  0  0  0  0
   58.7505  155.3427   -5.7073 H   0  0  0  0  0  0  0  0  0  0  0  0
   58.6419  155.1207   -7.3588 H   0  0  0  0  0  0  0  0  0  0  0  0
  1  4  2  0  0  0  0
  1  8  1  0  0  0  0
  2  5  2  0  0  0  0
  2  9  1  0  0  0  0
  3  6  1  0  0  0  0
  3  9  2  0  0  0  0
  4 10  1  0  0  0  0
  5 12  1  0  0  0  0
  6 12  2  0  0  0  0
  7 10  2  0  0  0  0
  7 11  1  0  0  0  0
  8 11  2  0  0  0  0
  8 13  1  0  0  0  0
  9 15  1  0  0  0  0
 10 17  1  0  0  0  0
 11 18  1  0  0  0  0
 12 21  1  0  0  0  0
 13 19  1  0  0  0  0
 13 20  2  0  0  0  0
 14 19  1  0  0  0  0
 15 16  1  0  0  0  0
 16 18  1  0  0  0  0
  1 22  1  0  0  0  0
  2 23  1  0  0  0  0
  3 24  1  0  0  0  0
  4 25  1  0  0  0  0
  5 26  1  0  0  0  0
  6 27  1  0  0  0  0
  7 28  1  0  0  0  0
 14 29  1  0  0  0  0
 14 30  1  0  0  0  0
 14 31  1  0  0  0  0
 15 32  1  0  0  0  0
 15 33  1  0  0  0  0
 16 34  1  0  0  0  0
 16 35  1  0  0  0  0
 17 36  1  0  0  0  0
 17 37  1  0  0  0  0
 18 38  1  0  0  0  0
 19 39  1  0  0  0  0
M  END
> <FRED Chemgauss4 score>
-6.426908

$$$$
C74189571	P115619256
  -OEChem-05122015083D

 30 31  0     1  0  0  0  0  0999 V2000
   57.6662  155.5152   -6.4375 C   0  0  0  0  0  0  0  0  0  0  0  0
   53.9605  156.1082   -6.0160 C   0  0  0  0  0  0  0  0  0  0  0  0
   56.3325  155.2422   -6.2553 C   0  0  0  0  0  0  0  0  0  0  0  0
   55.3025  156.1001   -5.7167 C   0  0  0  0  0  0  0  0  0  0  0  0
   56.1778  153.9204   -6.7144 C   0  0  0  0  0  0  0  0  0  0  0  0
   54.4612  157.6440   -4.5170 C   0  0  0  0  0  0  0  0  0  0  0  0
   54.9469  153.1093   -6.7542 C   0  0  0  0  0  0  0  0  0  0  0  0
   55.0178  160.0351   -3.9128 C   0  0  0  0  0  0  0  0  0  0  0  0
   59.5902  154.1873   -7.3405 C   0  0  0  0  0  0  0  0  0  0  0  0
   54.2271  158.7810   -3.5458 C   0  0  2  0  0  0  0  0  0  0  0  0
   55.6077  157.0582   -4.7826 N   0  0  0  0  0  0  0  0  0  0  0  0
   57.3219  153.3906   -7.1554 N   0  0  0  0  0  0  0  0  0  0  0  0
   53.4348  157.1021   -5.2395 N   0  0  0  0  0  0  0  0  0  0  0  0
   58.2081  154.3845   -6.9742 N   0  0  0  0  0  0  0  0  0  0  0  0
   54.5136  158.3783   -2.1880 N   0  0  0  0  0  0  0  0  0  0  0  0
   58.2624  156.3955   -6.2358 H   0  0  0  0  0  0  0  0  0  0  0  0
   53.3481  155.5210   -6.6857 H   0  0  0  0  0  0  0  0  0  0  0  0
   54.4128  153.2418   -7.7099 H   0  0  0  0  0  0  0  0  0  0  0  0
   55.1557  152.0319   -6.6349 H   0  0  0  0  0  0  0  0  0  0  0  0
   54.2484  153.3748   -5.9415 H   0  0  0  0  0  0  0  0  0  0  0  0
   56.0945  159.8334   -3.9239 H   0  0  0  0  0  0  0  0  0  0  0  0
   54.7294  160.3935   -4.9074 H   0  0  0  0  0  0  0  0  0  0  0  0
   54.8349  160.8555   -3.2097 H   0  0  0  0  0  0  0  0  0  0  0  0
   60.1156  153.7847   -6.4705 H   0  0  0  0  0  0  0  0  0  0  0  0
   59.6484  153.4884   -8.1795 H   0  0  0  0  0  0  0  0  0  0  0  0
   60.0244  155.1448   -7.6413 H   0  0  0  0  0  0  0  0  0  0  0  0
   53.1624  159.0450   -3.5514 H   0  0  0  0  0  0  0  0  0  0  0  0
   52.4639  157.3838   -5.2074 H   0  0  0  0  0  0  0  0  0  0  0  0
   54.3083  157.4358   -1.9086 H   0  0  0  0  0  0  0  0  0  0  0  0
   54.7155  159.0866   -1.5052 H   0  0  0  0  0  0  0  0  0  0  0  0
  1  3  2  0  0  0  0
  1 14  1  0  0  0  0
  2  4  2  0  0  0  0
  2 13  1  0  0  0  0
  3  4  1  0  0  0  0
  3  5  1  0  0  0  0
  4 11  1  0  0  0  0
  5  7  1  0  0  0  0
  5 12  2  0  0  0  0
  6 10  1  0  0  0  0
  6 11  2  0  0  0  0
  6 13  1  0  0  0  0
  8 10  1  0  0  0  0
  9 14  1  0  0  0  0
 10 15  1  0  0  0  0
 12 14  1  0  0  0  0
  1 16  1  0  0  0  0
  2 17  1  0  0  0  0
  7 18  1  0  0  0  0
  7 19  1  0  0  0  0
  7 20  1  0  0  0  0
  8 21  1  0  0  0  0
  8 22  1  0  0  0  0
  8 23  1  0  0  0  0
  9 24  1  0  0  0  0
  9 25  1  0  0  0  0
  9 26  1  0  0  0  0
 10 27  1  0  0  0  0
 13 28  1  0  0  0  0
 15 29  1  0  0  0  0
 15 30  1  0  0  0  0
M  END
> <FRED Chemgauss4 score>
-6.424929

$$$$
C97910502	P155409201
  -OEChem-05122015083D

 42 43  0     1  0  0  0  0  0999 V2000
   56.5662  159.8564   -4.0113 C   0  0  0  0  0  0  0  0  0  0  0  0
   61.3143  162.2898   -6.5047 C   0  0  0  0  0  0  0  0  0  0  0  0
   62.1793  163.0585   -5.5121 C   0  0  0  0  0  0  0  0  0  0  0  0
   60.2947  161.4251   -5.7694 C   0  0  0  0  0  0  0  0  0  0  0  0
   56.0282  156.3151   -4.6256 C   0  0  0  0  0  0  0  0  0  0  0  0
   56.1969  155.3993   -5.8236 C   0  0  0  0  0  0  0  0  0  0  0  0
   54.5634  156.9770   -6.4357 C   0  0  0  0  0  0  0  0  0  0  0  0
   61.3125  163.7958   -4.5002 C   0  0  0  0  0  0  0  0  0  0  0  0
   59.5201  162.2574   -4.7450 C   0  0  1  0  0  0  0  0  0  0  0  0
   54.6891  156.9923   -4.9077 C   0  0  2  0  0  0  0  0  0  0  0  0
   57.5337  160.7114   -4.8100 C   0  0  0  0  0  0  0  0  0  0  0  0
   58.5800  161.3828   -3.9270 C   0  0  0  0  0  0  0  0  0  0  0  0
   54.5906  158.3877   -4.3072 C   0  0  0  0  0  0  0  0  0  0  0  0
   55.7282  156.2310   -6.9273 N   0  0  0  0  0  0  0  0  0  0  0  0
   55.6216  159.2533   -4.8289 N   0  0  0  0  0  0  0  0  0  0  0  0
   56.6294  159.7260   -2.7918 O   0  0  0  0  0  0  0  0  0  0  0  0
   60.4272  162.8930   -3.8378 O   0  0  0  0  0  0  0  0  0  0  0  0
   53.6392  156.1874   -4.3672 O   0  0  0  0  0  0  0  0  0  0  0  0
   60.7888  162.9986   -7.1562 H   0  0  0  0  0  0  0  0  0  0  0  0
   61.9436  161.6656   -7.1485 H   0  0  0  0  0  0  0  0  0  0  0  0
   62.8211  162.3444   -4.9816 H   0  0  0  0  0  0  0  0  0  0  0  0
   62.8316  163.7618   -6.0401 H   0  0  0  0  0  0  0  0  0  0  0  0
   59.6096  160.9607   -6.4873 H   0  0  0  0  0  0  0  0  0  0  0  0
   60.8330  160.6173   -5.2572 H   0  0  0  0  0  0  0  0  0  0  0  0
   56.0330  155.7475   -3.6895 H   0  0  0  0  0  0  0  0  0  0  0  0
   56.8467  157.0455   -4.6008 H   0  0  0  0  0  0  0  0  0  0  0  0
   57.2357  155.0860   -5.9627 H   0  0  0  0  0  0  0  0  0  0  0  0
   55.5742  154.5018   -5.7340 H   0  0  0  0  0  0  0  0  0  0  0  0
   53.6457  156.4786   -6.7668 H   0  0  0  0  0  0  0  0  0  0  0  0
   54.5745  157.9840   -6.8667 H   0  0  0  0  0  0  0  0  0  0  0  0
   61.9451  164.2617   -3.7380 H   0  0  0  0  0  0  0  0  0  0  0  0
   60.7304  164.5922   -4.9787 H   0  0  0  0  0  0  0  0  0  0  0  0
   58.9285  163.0305   -5.2516 H   0  0  0  0  0  0  0  0  0  0  0  0
   58.0245  160.0706   -5.5523 H   0  0  0  0  0  0  0  0  0  0  0  0
   56.9549  161.4704   -5.3497 H   0  0  0  0  0  0  0  0  0  0  0  0
   59.1661  160.6242   -3.3960 H   0  0  0  0  0  0  0  0  0  0  0  0
   58.0896  161.9980   -3.1643 H   0  0  0  0  0  0  0  0  0  0  0  0
   54.7079  158.3465   -3.2201 H   0  0  0  0  0  0  0  0  0  0  0  0
   53.6236  158.8431   -4.5404 H   0  0  0  0  0  0  0  0  0  0  0  0
   56.4625  156.9016   -7.1588 H   0  0  0  0  0  0  0  0  0  0  0  0
   55.6565  159.4267   -5.8292 H   0  0  0  0  0  0  0  0  0  0  0  0
   52.8114  156.6495   -4.5663 H   0  0  0  0  0  0  0  0  0  0  0  0
  1 11  1  0  0  0  0
  1 15  1  0  0  0  0
  1 16  2  0  0  0  0
  2  3  1  0  0  0  0
  2  4  1  0  0  0  0
  3  8  1  0  0  0  0
  4  9  1  0  0  0  0
  5  6  1  0  0  0  0
  5 10  1  0  0  0  0
  6 14  1  0  0  0  0
  7 10  1  0  0  0  0
  7 14  1  0  0  0  0
  8 17  1  0  0  0  0
  9 12  1  0  0  0  0
  9 17  1  0  0  0  0
 10 13  1  0  0  0  0
 10 18  1  0  0  0  0
 11 12  1  0  0  0  0
 13 15  1  0  0  0  0
  2 19  1  0  0  0  0
  2 20  1  0  0  0  0
  3 21  1  0  0  0  0
  3 22  1  0  0  0  0
  4 23  1  0  0  0  0
  4 24  1  0  0  0  0
  5 25  1  0  0  0  0
  5 26  1  0  0  0  0
  6 27  1  0  0  0  0
  6 28  1  0  0  0  0
  7 29  1  0  0  0  0
  7 30  1  0  0  0  0
  8 31  1  0  0  0  0
  8 32  1  0  0  0  0
  9 33  1  0  0  0  0
 11 34  1  0  0  0  0
 11 35  1  0  0  0  0
 12 36  1  0  0  0  0
 12 37  1  0  0  0  0
 13 38  1  0  0  0  0
 13 39  1  0  0  0  0
 14 40  1  0  0  0  0
 15 41  1  0  0  0  0
 18 42  1  0  0  0  0
M  END
> <FRED Chemgauss4 score>
-6.415527

$$$$
C36227544	P53841356
  -OEChem-05122015083D

 40 40  0     1  0  0  0  0  0999 V2000
   58.0932  157.1895   -5.6208 C   0  0  0  0  0  0  0  0  0  0  0  0
   56.7762  153.8944   -6.0578 C   0  0  0  0  0  0  0  0  0  0  0  0
   55.2664  154.0914   -5.9241 C   0  0  0  0  0  0  0  0  0  0  0  0
   57.4296  155.0887   -6.7458 C   0  0  0  0  0  0  0  0  0  0  0  0
   55.6409  156.5885   -5.9390 C   0  0  0  0  0  0  0  0  0  0  0  0
   54.9440  155.4213   -5.2254 C   0  0  1  0  0  0  0  0  0  0  0  0
   57.3313  162.3907   -2.1831 C   0  0  0  0  0  0  0  0  0  0  0  0
   53.4357  155.6473   -5.1620 C   0  0  0  0  0  0  0  0  0  0  0  0
   58.7278  158.9230   -3.9554 C   0  0  0  0  0  0  0  0  0  0  0  0
   58.1515  159.8255   -2.8726 C   0  0  0  0  0  0  0  0  0  0  0  0
   57.6545  158.4531   -4.9247 C   0  0  1  0  0  0  0  0  0  0  0  0
   57.0828  156.3364   -6.0634 N   0  0  0  0  0  0  0  0  0  0  0  0
   57.4215  159.3704   -6.0011 N   0  0  0  0  0  0  0  0  0  0  0  0
   59.2984  156.9679   -5.7639 O   0  0  0  0  0  0  0  0  0  0  0  0
   58.3662  161.8434   -4.5202 O   0  0  0  0  0  0  0  0  0  0  0  0
   56.0669  160.9600   -3.9682 O   0  0  0  0  0  0  0  0  0  0  0  0
   53.1924  156.8757   -4.5020 O   0  0  0  0  0  0  0  0  0  0  0  0
   57.4268  161.2777   -3.5667 S   0  0  0  0  0  0  0  0  0  0  0  0
   57.2116  153.7651   -5.0591 H   0  0  0  0  0  0  0  0  0  0  0  0
   56.9837  152.9792   -6.6231 H   0  0  0  0  0  0  0  0  0  0  0  0
   54.8093  154.0715   -6.9217 H   0  0  0  0  0  0  0  0  0  0  0  0
   54.8380  153.2554   -5.3589 H   0  0  0  0  0  0  0  0  0  0  0  0
   58.5147  154.9487   -6.7770 H   0  0  0  0  0  0  0  0  0  0  0  0
   57.0802  155.1739   -7.7816 H   0  0  0  0  0  0  0  0  0  0  0  0
   55.2492  156.7108   -6.9566 H   0  0  0  0  0  0  0  0  0  0  0  0
   55.4382  157.5194   -5.4057 H   0  0  0  0  0  0  0  0  0  0  0  0
   55.3260  155.3677   -4.1968 H   0  0  0  0  0  0  0  0  0  0  0  0
   56.8892  163.3279   -2.5248 H   0  0  0  0  0  0  0  0  0  0  0  0
   56.7079  161.9316   -1.4143 H   0  0  0  0  0  0  0  0  0  0  0  0
   58.3413  162.5592   -1.8065 H   0  0  0  0  0  0  0  0  0  0  0  0
   52.9624  154.8387   -4.6056 H   0  0  0  0  0  0  0  0  0  0  0  0
   53.0242  155.6914   -6.1700 H   0  0  0  0  0  0  0  0  0  0  0  0
   59.5257  159.4556   -4.4901 H   0  0  0  0  0  0  0  0  0  0  0  0
   59.2078  158.0546   -3.4855 H   0  0  0  0  0  0  0  0  0  0  0  0
   58.9285  160.1600   -2.1789 H   0  0  0  0  0  0  0  0  0  0  0  0
   57.3634  159.3223   -2.3049 H   0  0  0  0  0  0  0  0  0  0  0  0
   56.7062  158.2531   -4.4260 H   0  0  0  0  0  0  0  0  0  0  0  0
   57.3838  160.3612   -5.8091 H   0  0  0  0  0  0  0  0  0  0  0  0
   57.0980  159.0190   -6.8910 H   0  0  0  0  0  0  0  0  0  0  0  0
   52.2281  156.9987   -4.4732 H   0  0  0  0  0  0  0  0  0  0  0  0
  1 11  1  0  0  0  0
  1 12  1  0  0  0  0
  1 14  2  0  0  0  0
  2  3  1  0  0  0  0
  2  4  1  0  0  0  0
  3  6  1  0  0  0  0
  4 12  1  0  0  0  0
  5  6  1  0  0  0  0
  5 12  1  0  0  0  0
  6  8  1  0  0  0  0
  7 18  1  0  0  0  0
  8 17  1  0  0  0  0
  9 10  1  0  0  0  0
  9 11  1  0  0  0  0
 10 18  1  0  0  0  0
 11 13  1  0  0  0  0
 15 18  2  0  0  0  0
 16 18  2  0  0  0  0
  2 19  1  0  0  0  0
  2 20  1  0  0  0  0
  3 21  1  0  0  0  0
  3 22  1  0  0  0  0
  4 23  1  0  0  0  0
  4 24  1  0  0  0  0
  5 25  1  0  0  0  0
  5 26  1  0  0  0  0
  6 27  1  0  0  0  0
  7 28  1  0  0  0  0
  7 29  1  0  0  0  0
  7 30  1  0  0  0  0
  8 31  1  0  0  0  0
  8 32  1  0  0  0  0
  9 33  1  0  0  0  0
  9 34  1  0  0  0  0
 10 35  1  0  0  0  0
 10 36  1  0  0  0  0
 11 37  1  0  0  0  0
 13 38  1  0  0  0  0
 13 39  1  0  0  0  0
 17 40  1  0  0  0  0
M  END
> <FRED Chemgauss4 score>
-6.414320

$$$$
C36872464	P54806293
  -OEChem-05122015083D

 29 30  0     1  0  0  0  0  0999 V2000
   57.1017  153.0704   -7.3715 C   0  0  0  0  0  0  0  0  0  0  0  0
   56.1632  153.8557   -6.7112 C   0  0  0  0  0  0  0  0  0  0  0  0
   58.3489  153.6208   -7.6190 C   0  0  0  0  0  0  0  0  0  0  0  0
   57.7703  155.6064   -6.6185 C   0  0  0  0  0  0  0  0  0  0  0  0
   54.1885  155.9144   -5.8052 C   0  0  0  0  0  0  0  0  0  0  0  0
   56.4959  155.1491   -6.3242 C   0  0  0  0  0  0  0  0  0  0  0  0
   55.5524  155.9809   -5.6444 C   0  0  0  0  0  0  0  0  0  0  0  0
   54.7541  157.4753   -4.3560 C   0  0  0  0  0  0  0  0  0  0  0  0
   55.9612  160.2323   -4.7194 C   0  0  0  0  0  0  0  0  0  0  0  0
   55.7460  159.5761   -3.3611 C   0  0  0  0  0  0  0  0  0  0  0  0
   54.5573  158.5997   -3.3594 C   0  0  2  0  0  0  0  0  0  0  0  0
   58.7087  154.8730   -7.2583 N   0  0  0  0  0  0  0  0  0  0  0  0
   55.8980  156.9544   -4.7408 N   0  0  0  0  0  0  0  0  0  0  0  0
   53.6908  156.8773   -4.9732 N   0  0  0  0  0  0  0  0  0  0  0  0
   54.3131  158.0721   -2.0356 N   0  0  0  0  0  0  0  0  0  0  0  0
   56.8640  152.0597   -7.6829 H   0  0  0  0  0  0  0  0  0  0  0  0
   55.1775  153.4460   -6.5054 H   0  0  0  0  0  0  0  0  0  0  0  0
   59.1155  153.0490   -8.1312 H   0  0  0  0  0  0  0  0  0  0  0  0
   58.0925  156.6068   -6.3438 H   0  0  0  0  0  0  0  0  0  0  0  0
   53.5432  155.2941   -6.4118 H   0  0  0  0  0  0  0  0  0  0  0  0
   55.0590  160.7577   -5.0485 H   0  0  0  0  0  0  0  0  0  0  0  0
   56.7748  160.9623   -4.6596 H   0  0  0  0  0  0  0  0  0  0  0  0
   56.2284  159.4941   -5.4818 H   0  0  0  0  0  0  0  0  0  0  0  0
   56.6709  159.0626   -3.0699 H   0  0  0  0  0  0  0  0  0  0  0  0
   55.5754  160.3669   -2.6194 H   0  0  0  0  0  0  0  0  0  0  0  0
   53.6496  159.1565   -3.6238 H   0  0  0  0  0  0  0  0  0  0  0  0
   52.7140  157.1040   -4.8401 H   0  0  0  0  0  0  0  0  0  0  0  0
   53.7970  157.2160   -1.9438 H   0  0  0  0  0  0  0  0  0  0  0  0
   54.4800  158.6630   -1.2413 H   0  0  0  0  0  0  0  0  0  0  0  0
  1  2  2  0  0  0  0
  1  3  1  0  0  0  0
  2  6  1  0  0  0  0
  3 12  2  0  0  0  0
  4  6  2  0  0  0  0
  4 12  1  0  0  0  0
  5  7  2  0  0  0  0
  5 14  1  0  0  0  0
  6  7  1  0  0  0  0
  7 13  1  0  0  0  0
  8 11  1  0  0  0  0
  8 13  2  0  0  0  0
  8 14  1  0  0  0  0
  9 10  1  0  0  0  0
 10 11  1  0  0  0  0
 11 15  1  0  0  0  0
  1 16  1  0  0  0  0
  2 17  1  0  0  0  0
  3 18  1  0  0  0  0
  4 19  1  0  0  0  0
  5 20  1  0  0  0  0
  9 21  1  0  0  0  0
  9 22  1  0  0  0  0
  9 23  1  0  0  0  0
 10 24  1  0  0  0  0
 10 25  1  0  0  0  0
 11 26  1  0  0  0  0
 14 27  1  0  0  0  0
 15 28  1  0  0  0  0
 15 29  1  0  0  0  0
M  END
> <FRED Chemgauss4 score>
-6.412436

$$$$
C45169388	P68083549
  -OEChem-05122015083D

 42 43  0     1  0  0  0  0  0999 V2000
   55.3608  160.7985   -3.0769 C   0  0  0  0  0  0  0  0  0  0  0  0
   57.8107  160.5549   -2.4670 C   0  0  0  0  0  0  0  0  0  0  0  0
   56.5682  160.1407   -3.0767 C   0  0  0  0  0  0  0  0  0  0  0  0
   58.2414  160.2623   -1.1591 C   0  0  0  0  0  0  0  0  0  0  0  0
   58.8278  161.3060   -3.0035 C   0  0  0  0  0  0  0  0  0  0  0  0
   55.2407  158.8928   -4.1772 C   0  0  0  0  0  0  0  0  0  0  0  0
   57.5408  159.4803   -0.1237 C   0  0  0  0  0  0  0  0  0  0  0  0
   58.9902  161.9219   -4.3349 C   0  0  0  0  0  0  0  0  0  0  0  0
   55.7489  154.0856   -5.9196 C   0  0  0  0  0  0  0  0  0  0  0  0
   56.5622  156.9615   -6.4020 C   0  0  0  0  0  0  0  0  0  0  0  0
   61.0312  162.1118   -2.1026 C   0  0  0  0  0  0  0  0  0  0  0  0
   54.8410  155.2733   -5.6293 C   0  0  0  0  0  0  0  0  0  0  0  0
   54.6068  157.7788   -4.9916 C   0  0  1  0  0  0  0  0  0  0  0  0
   55.5674  156.5959   -5.2885 C   0  0  2  0  0  0  0  0  0  0  0  0
   56.4869  158.9553   -3.7636 N   0  0  0  0  0  0  0  0  0  0  0  0
   59.4389  160.7848   -0.8816 N   0  0  0  0  0  0  0  0  0  0  0  0
   54.5205  159.9872   -3.7860 N   0  0  0  0  0  0  0  0  0  0  0  0
   59.7694  161.4132   -2.0226 N   0  0  0  0  0  0  0  0  0  0  0  0
   53.4252  157.3396   -4.2782 N   0  0  0  0  0  0  0  0  0  0  0  0
   55.0288  161.7362   -2.6542 H   0  0  0  0  0  0  0  0  0  0  0  0
   57.8046  158.4112   -0.1848 H   0  0  0  0  0  0  0  0  0  0  0  0
   57.7858  159.8270    0.8953 H   0  0  0  0  0  0  0  0  0  0  0  0
   56.4434  159.5593   -0.2153 H   0  0  0  0  0  0  0  0  0  0  0  0
   58.5807  162.9453   -4.3520 H   0  0  0  0  0  0  0  0  0  0  0  0
   60.0497  161.9799   -4.6377 H   0  0  0  0  0  0  0  0  0  0  0  0
   58.4793  161.3434   -5.1237 H   0  0  0  0  0  0  0  0  0  0  0  0
   56.4163  154.3251   -6.7541 H   0  0  0  0  0  0  0  0  0  0  0  0
   55.1741  153.1994   -6.2029 H   0  0  0  0  0  0  0  0  0  0  0  0
   56.3749  153.8330   -5.0599 H   0  0  0  0  0  0  0  0  0  0  0  0
   56.0376  157.1749   -7.3394 H   0  0  0  0  0  0  0  0  0  0  0  0
   57.1605  157.8391   -6.1375 H   0  0  0  0  0  0  0  0  0  0  0  0
   57.2528  156.1347   -6.5988 H   0  0  0  0  0  0  0  0  0  0  0  0
   60.8676  163.1422   -1.7762 H   0  0  0  0  0  0  0  0  0  0  0  0
   61.7625  161.6178   -1.4569 H   0  0  0  0  0  0  0  0  0  0  0  0
   61.3920  162.0893   -3.1348 H   0  0  0  0  0  0  0  0  0  0  0  0
   54.1845  155.0069   -4.7910 H   0  0  0  0  0  0  0  0  0  0  0  0
   54.1767  155.4255   -6.4879 H   0  0  0  0  0  0  0  0  0  0  0  0
   54.2307  158.1787   -5.9413 H   0  0  0  0  0  0  0  0  0  0  0  0
   56.1702  156.3984   -4.3909 H   0  0  0  0  0  0  0  0  0  0  0  0
   53.5446  160.1654   -3.9834 H   0  0  0  0  0  0  0  0  0  0  0  0
   53.0491  156.4331   -4.4828 H   0  0  0  0  0  0  0  0  0  0  0  0
   52.8991  158.0156   -3.7570 H   0  0  0  0  0  0  0  0  0  0  0  0
  1  3  2  0  0  0  0
  1 17  1  0  0  0  0
  2  3  1  0  0  0  0
  2  4  1  0  0  0  0
  2  5  2  0  0  0  0
  3 15  1  0  0  0  0
  4  7  1  0  0  0  0
  4 16  2  0  0  0  0
  5  8  1  0  0  0  0
  5 18  1  0  0  0  0
  6 13  1  0  0  0  0
  6 15  2  0  0  0  0
  6 17  1  0  0  0  0
  9 12  1  0  0  0  0
 10 14  1  0  0  0  0
 11 18  1  0  0  0  0
 12 14  1  0  0  0  0
 13 14  1  0  0  0  0
 13 19  1  0  0  0  0
 16 18  1  0  0  0  0
  1 20  1  0  0  0  0
  7 21  1  0  0  0  0
  7 22  1  0  0  0  0
  7 23  1  0  0  0  0
  8 24  1  0  0  0  0
  8 25  1  0  0  0  0
  8 26  1  0  0  0  0
  9 27  1  0  0  0  0
  9 28  1  0  0  0  0
  9 29  1  0  0  0  0
 10 30  1  0  0  0  0
 10 31  1  0  0  0  0
 10 32  1  0  0  0  0
 11 33  1  0  0  0  0
 11 34  1  0  0  0  0
 11 35  1  0  0  0  0
 12 36  1  0  0  0  0
 12 37  1  0  0  0  0
 13 38  1  0  0  0  0
 14 39  1  0  0  0  0
 17 40  1  0  0  0  0
 19 41  1  0  0  0  0
 19 42  1  0  0  0  0
M  END
> <FRED Chemgauss4 score>
-6.410417

$$$$
C97776743	P155157585
  -OEChem-05122015083D

 37 38  0     1  0  0  0  0  0999 V2000
   55.7716  157.8494   -5.0811 C   0  0  0  0  0  0  0  0  0  0  0  0
   54.5156  159.0297   -3.4422 C   0  0  0  0  0  0  0  0  0  0  0  0
   54.7823  156.7594   -3.2131 C   0  0  0  0  0  0  0  0  0  0  0  0
   58.3366  162.5207   -3.8197 C   0  0  0  0  0  0  0  0  0  0  0  0
   55.2558  159.0529   -4.6133 C   0  0  0  0  0  0  0  0  0  0  0  0
   55.5348  156.6761   -4.3735 C   0  0  0  0  0  0  0  0  0  0  0  0
   58.0243  161.0447   -5.4116 C   0  0  0  0  0  0  0  0  0  0  0  0
   56.7394  161.0860   -4.9120 C   0  0  0  0  0  0  0  0  0  0  0  0
   58.4933  160.2093   -6.5360 C   0  0  0  0  0  0  0  0  0  0  0  0
   56.2798  153.7153   -6.4237 C   0  0  0  0  0  0  0  0  0  0  0  0
   54.0903  154.9245   -6.1146 C   0  0  0  0  0  0  0  0  0  0  0  0
   55.4914  160.3249   -5.3471 C   0  0  2  0  0  0  0  0  0  0  0  0
   55.6070  155.0400   -6.0980 C   0  0  0  0  0  0  0  0  0  0  0  0
   54.2647  157.9100   -2.7275 N   0  0  0  0  0  0  0  0  0  0  0  0
   58.9415  161.8671   -4.7867 N   0  0  0  0  0  0  0  0  0  0  0  0
   53.2220  160.5345   -5.8704 N   0  0  0  0  0  0  0  0  0  0  0  0
   54.3157  161.2139   -5.2677 N   0  0  0  0  0  0  0  0  0  0  0  0
   56.0300  155.4764   -4.8098 O   0  0  0  0  0  0  0  0  0  0  0  0
   56.6655  162.1946   -3.6055 S   0  0  0  0  0  0  0  0  0  0  0  0
   56.3577  157.8228   -5.9961 H   0  0  0  0  0  0  0  0  0  0  0  0
   54.0883  159.9382   -3.0289 H   0  0  0  0  0  0  0  0  0  0  0  0
   54.5671  155.8758   -2.6204 H   0  0  0  0  0  0  0  0  0  0  0  0
   58.8586  163.2262   -3.1879 H   0  0  0  0  0  0  0  0  0  0  0  0
   58.3876  160.7408   -7.4954 H   0  0  0  0  0  0  0  0  0  0  0  0
   59.5530  159.9246   -6.4245 H   0  0  0  0  0  0  0  0  0  0  0  0
   57.9293  159.2643   -6.6112 H   0  0  0  0  0  0  0  0  0  0  0  0
   55.9830  152.9346   -5.7167 H   0  0  0  0  0  0  0  0  0  0  0  0
   56.0133  153.3911   -7.4354 H   0  0  0  0  0  0  0  0  0  0  0  0
   57.3711  153.8112   -6.4019 H   0  0  0  0  0  0  0  0  0  0  0  0
   53.7412  154.1727   -5.4003 H   0  0  0  0  0  0  0  0  0  0  0  0
   53.7402  154.6465   -7.1145 H   0  0  0  0  0  0  0  0  0  0  0  0
   53.6194  155.8835   -5.8720 H   0  0  0  0  0  0  0  0  0  0  0  0
   55.5947  160.1326   -6.4322 H   0  0  0  0  0  0  0  0  0  0  0  0
   55.9237  155.7983   -6.8215 H   0  0  0  0  0  0  0  0  0  0  0  0
   53.4959  159.5807   -6.1050 H   0  0  0  0  0  0  0  0  0  0  0  0
   52.4821  160.4484   -5.1747 H   0  0  0  0  0  0  0  0  0  0  0  0
   54.5209  162.0638   -5.7791 H   0  0  0  0  0  0  0  0  0  0  0  0
  1  5  1  0  0  0  0
  1  6  2  0  0  0  0
  2  5  2  0  0  0  0
  2 14  1  0  0  0  0
  3  6  1  0  0  0  0
  3 14  2  0  0  0  0
  4 15  2  0  0  0  0
  4 19  1  0  0  0  0
  5 12  1  0  0  0  0
  6 18  1  0  0  0  0
  7  8  2  0  0  0  0
  7  9  1  0  0  0  0
  7 15  1  0  0  0  0
  8 12  1  0  0  0  0
  8 19  1  0  0  0  0
 10 13  1  0  0  0  0
 11 13  1  0  0  0  0
 12 17  1  0  0  0  0
 13 18  1  0  0  0  0
 16 17  1  0  0  0  0
  1 20  1  0  0  0  0
  2 21  1  0  0  0  0
  3 22  1  0  0  0  0
  4 23  1  0  0  0  0
  9 24  1  0  0  0  0
  9 25  1  0  0  0  0
  9 26  1  0  0  0  0
 10 27  1  0  0  0  0
 10 28  1  0  0  0  0
 10 29  1  0  0  0  0
 11 30  1  0  0  0  0
 11 31  1  0  0  0  0
 11 32  1  0  0  0  0
 12 33  1  0  0  0  0
 13 34  1  0  0  0  0
 16 35  1  0  0  0  0
 16 36  1  0  0  0  0
 17 37  1  0  0  0  0
M  END
> <FRED Chemgauss4 score>
-6.407883

$$$$
C94262347	P147739855
  -OEChem-05122015083D

 36 38  0     1  0  0  0  0  0999 V2000
   56.2191  154.0207   -6.3792 C   0  0  0  0  0  0  0  0  0  0  0  0
   57.3257  154.0381   -7.2241 C   0  0  0  0  0  0  0  0  0  0  0  0
   52.4163  157.5963   -5.2737 C   0  0  0  0  0  0  0  0  0  0  0  0
   52.2247  159.2663   -6.6988 C   0  0  0  0  0  0  0  0  0  0  0  0
   56.0454  155.1562   -5.5955 C   0  0  0  0  0  0  0  0  0  0  0  0
   53.1598  158.6830   -4.8779 C   0  0  0  0  0  0  0  0  0  0  0  0
   56.9217  156.2338   -5.6563 C   0  0  0  0  0  0  0  0  0  0  0  0
   58.1581  155.1524   -7.2299 C   0  0  0  0  0  0  0  0  0  0  0  0
   55.4541  156.7735   -4.2125 C   0  0  0  0  0  0  0  0  0  0  0  0
   61.2141  156.0872   -9.0352 C   0  0  0  0  0  0  0  0  0  0  0  0
   54.0284  158.8250   -3.6487 C   0  0  0  0  0  0  0  0  0  0  0  0
   60.0745  156.2902   -8.0596 C   0  0  0  0  0  0  0  0  0  0  0  0
   54.6445  157.4634   -3.1909 C   0  0  1  0  0  0  0  0  0  0  0  0
   53.0360  159.7194   -5.7691 N   0  0  0  0  0  0  0  0  0  0  0  0
   58.0033  156.2651   -6.4741 N   0  0  0  0  0  0  0  0  0  0  0  0
   56.5424  157.2305   -4.7927 N   0  0  0  0  0  0  0  0  0  0  0  0
   51.8226  157.9851   -6.4414 N   0  0  0  0  0  0  0  0  0  0  0  0
   55.1142  155.5264   -4.6639 N   0  0  0  0  0  0  0  0  0  0  0  0
   53.5245  156.6280   -2.6866 N   0  0  0  0  0  0  0  0  0  0  0  0
   59.2417  155.1390   -8.0747 O   0  0  0  0  0  0  0  0  0  0  0  0
   55.5409  153.1774   -6.3374 H   0  0  0  0  0  0  0  0  0  0  0  0
   57.5292  153.1876   -7.8677 H   0  0  0  0  0  0  0  0  0  0  0  0
   52.2583  156.6155   -4.8485 H   0  0  0  0  0  0  0  0  0  0  0  0
   51.8928  159.8077   -7.5734 H   0  0  0  0  0  0  0  0  0  0  0  0
   61.8159  155.2176   -8.7568 H   0  0  0  0  0  0  0  0  0  0  0  0
   60.8316  155.9419  -10.0508 H   0  0  0  0  0  0  0  0  0  0  0  0
   61.8610  156.9704   -9.0621 H   0  0  0  0  0  0  0  0  0  0  0  0
   53.4112  159.2705   -2.8559 H   0  0  0  0  0  0  0  0  0  0  0  0
   54.8243  159.5562   -3.8423 H   0  0  0  0  0  0  0  0  0  0  0  0
   59.4767  157.1614   -8.3438 H   0  0  0  0  0  0  0  0  0  0  0  0
   60.4584  156.4344   -7.0453 H   0  0  0  0  0  0  0  0  0  0  0  0
   55.2584  157.6802   -2.2891 H   0  0  0  0  0  0  0  0  0  0  0  0
   51.2007  157.4274   -7.0114 H   0  0  0  0  0  0  0  0  0  0  0  0
   54.3196  154.9774   -4.3632 H   0  0  0  0  0  0  0  0  0  0  0  0
   52.7571  157.1048   -2.2933 H   0  0  0  0  0  0  0  0  0  0  0  0
   53.6997  155.6632   -2.5884 H   0  0  0  0  0  0  0  0  0  0  0  0
  1  2  2  0  0  0  0
  1  5  1  0  0  0  0
  2  8  1  0  0  0  0
  3  6  2  0  0  0  0
  3 17  1  0  0  0  0
  4 14  2  0  0  0  0
  4 17  1  0  0  0  0
  5  7  2  0  0  0  0
  5 18  1  0  0  0  0
  6 11  1  0  0  0  0
  6 14  1  0  0  0  0
  7 15  1  0  0  0  0
  7 16  1  0  0  0  0
  8 15  2  0  0  0  0
  8 20  1  0  0  0  0
  9 13  1  0  0  0  0
  9 16  2  0  0  0  0
  9 18  1  0  0  0  0
 10 12  1  0  0  0  0
 11 13  1  0  0  0  0
 12 20  1  0  0  0  0
 13 19  1  0  0  0  0
  1 21  1  0  0  0  0
  2 22  1  0  0  0  0
  3 23  1  0  0  0  0
  4 24  1  0  0  0  0
 10 25  1  0  0  0  0
 10 26  1  0  0  0  0
 10 27  1  0  0  0  0
 11 28  1  0  0  0  0
 11 29  1  0  0  0  0
 12 30  1  0  0  0  0
 12 31  1  0  0  0  0
 13 32  1  0  0  0  0
 17 33  1  0  0  0  0
 18 34  1  0  0  0  0
 19 35  1  0  0  0  0
 19 36  1  0  0  0  0
M  END
> <FRED Chemgauss4 score>
-6.401128

$$$$
C20216890	P30117378
  -OEChem-05122015083D

 36 36  0     1  0  0  0  0  0999 V2000
   56.5963  156.7321   -5.8999 C   0  0  0  0  0  0  0  0  0  0  0  0
   56.8952  154.0875   -6.7362 C   0  0  0  0  0  0  0  0  0  0  0  0
   55.4732  155.9747   -6.2322 C   0  0  0  0  0  0  0  0  0  0  0  0
   57.8688  156.1674   -5.9858 C   0  0  0  0  0  0  0  0  0  0  0  0
   55.6226  154.6524   -6.6504 C   0  0  0  0  0  0  0  0  0  0  0  0
   58.0183  154.8451   -6.4039 C   0  0  0  0  0  0  0  0  0  0  0  0
   54.2674  157.1355   -3.6177 C   0  0  0  0  0  0  0  0  0  0  0  0
   58.7202  158.2595   -5.2414 C   0  0  0  0  0  0  0  0  0  0  0  0
   54.7804  152.5562   -7.3937 C   0  0  0  0  0  0  0  0  0  0  0  0
   59.3200  152.9247   -6.9267 C   0  0  0  0  0  0  0  0  0  0  0  0
   54.0986  156.6053   -6.1342 C   0  0  2  0  0  0  0  0  0  0  0  0
   54.0117  157.6740   -5.0248 C   0  0  1  0  0  0  0  0  0  0  0  0
   52.7108  158.3089   -5.0694 N   0  0  0  0  0  0  0  0  0  0  0  0
   53.1006  155.6032   -5.9409 O   0  0  0  0  0  0  0  0  0  0  0  0
   58.9586  156.9169   -5.6594 O   0  0  0  0  0  0  0  0  0  0  0  0
   54.5360  153.8978   -6.9764 O   0  0  0  0  0  0  0  0  0  0  0  0
   59.2553  154.2812   -6.4909 O   0  0  0  0  0  0  0  0  0  0  0  0
   56.4836  157.7637   -5.5750 H   0  0  0  0  0  0  0  0  0  0  0  0
   57.0116  153.0571   -7.0627 H   0  0  0  0  0  0  0  0  0  0  0  0
   53.5723  156.3300   -3.3642 H   0  0  0  0  0  0  0  0  0  0  0  0
   54.1369  157.9303   -2.8744 H   0  0  0  0  0  0  0  0  0  0  0  0
   55.2896  156.7576   -3.5085 H   0  0  0  0  0  0  0  0  0  0  0  0
   59.6719  158.7447   -5.0114 H   0  0  0  0  0  0  0  0  0  0  0  0
   58.0768  158.2582   -4.3580 H   0  0  0  0  0  0  0  0  0  0  0  0
   58.2240  158.8008   -6.0504 H   0  0  0  0  0  0  0  0  0  0  0  0
   53.8310  152.0665   -7.6235 H   0  0  0  0  0  0  0  0  0  0  0  0
   55.2986  152.0149   -6.5981 H   0  0  0  0  0  0  0  0  0  0  0  0
   55.4063  152.5709   -8.2892 H   0  0  0  0  0  0  0  0  0  0  0  0
   60.3627  152.5986   -6.9515 H   0  0  0  0  0  0  0  0  0  0  0  0
   58.8766  152.8393   -7.9220 H   0  0  0  0  0  0  0  0  0  0  0  0
   58.7616  152.2993   -6.2263 H   0  0  0  0  0  0  0  0  0  0  0  0
   53.8761  157.0647   -7.1067 H   0  0  0  0  0  0  0  0  0  0  0  0
   54.7329  158.4754   -5.2261 H   0  0  0  0  0  0  0  0  0  0  0  0
   52.2708  158.4423   -5.9605 H   0  0  0  0  0  0  0  0  0  0  0  0
   52.3760  158.7777   -4.2487 H   0  0  0  0  0  0  0  0  0  0  0  0
   52.2521  156.0683   -5.8867 H   0  0  0  0  0  0  0  0  0  0  0  0
  1  3  1  0  0  0  0
  1  4  2  0  0  0  0
  2  5  1  0  0  0  0
  2  6  2  0  0  0  0
  3  5  2  0  0  0  0
  3 11  1  0  0  0  0
  4  6  1  0  0  0  0
  4 15  1  0  0  0  0
  5 16  1  0  0  0  0
  6 17  1  0  0  0  0
  7 12  1  0  0  0  0
  8 15  1  0  0  0  0
  9 16  1  0  0  0  0
 10 17  1  0  0  0  0
 11 12  1  0  0  0  0
 11 14  1  0  0  0  0
 12 13  1  0  0  0  0
  1 18  1  0  0  0  0
  2 19  1  0  0  0  0
  7 20  1  0  0  0  0
  7 21  1  0  0  0  0
  7 22  1  0  0  0  0
  8 23  1  0  0  0  0
  8 24  1  0  0  0  0
  8 25  1  0  0  0  0
  9 26  1  0  0  0  0
  9 27  1  0  0  0  0
  9 28  1  0  0  0  0
 10 29  1  0  0  0  0
 10 30  1  0  0  0  0
 10 31  1  0  0  0  0
 11 32  1  0  0  0  0
 12 33  1  0  0  0  0
 13 34  1  0  0  0  0
 13 35  1  0  0  0  0
 14 36  1  0  0  0  0
M  END
> <FRED Chemgauss4 score>
-6.399069

$$$$
C85187277	P133297783
  -OEChem-05122015083D

 27 27  0     1  0  0  0  0  0999 V2000
   56.5862  156.9072   -5.0486 C   0  0  0  0  0  0  0  0  0  0  0  0
   57.1181  155.4838   -6.5391 C   0  0  0  0  0  0  0  0  0  0  0  0
   55.4894  156.0890   -5.1834 C   0  0  0  0  0  0  0  0  0  0  0  0
   54.9913  151.9871   -8.0194 C   0  0  0  0  0  0  0  0  0  0  0  0
   55.8585  153.1132   -7.4810 C   0  0  0  0  0  0  0  0  0  0  0  0
   55.0382  154.0995   -6.6526 C   0  0  0  0  0  0  0  0  0  0  0  0
   54.2667  155.9221   -2.9738 C   0  0  0  0  0  0  0  0  0  0  0  0
   54.1437  156.0886   -4.4907 C   0  0  1  0  0  0  0  0  0  0  0  0
   57.5965  156.5254   -5.8955 N   0  0  0  0  0  0  0  0  0  0  0  0
   55.8450  155.1824   -6.1420 N   0  0  0  0  0  0  0  0  0  0  0  0
   53.3994  157.2868   -4.8146 N   0  0  0  0  0  0  0  0  0  0  0  0
   52.9647  155.8947   -2.3978 O   0  0  0  0  0  0  0  0  0  0  0  0
   56.7021  157.7525   -4.3856 H   0  0  0  0  0  0  0  0  0  0  0  0
   57.6411  154.9140   -7.2950 H   0  0  0  0  0  0  0  0  0  0  0  0
   54.1753  152.3803   -8.6340 H   0  0  0  0  0  0  0  0  0  0  0  0
   54.5516  151.4191   -7.1936 H   0  0  0  0  0  0  0  0  0  0  0  0
   55.5807  151.2965   -8.6311 H   0  0  0  0  0  0  0  0  0  0  0  0
   56.6647  152.6882   -6.8711 H   0  0  0  0  0  0  0  0  0  0  0  0
   56.3379  153.6328   -8.3194 H   0  0  0  0  0  0  0  0  0  0  0  0
   54.5707  153.5999   -5.7957 H   0  0  0  0  0  0  0  0  0  0  0  0
   54.2306  154.5389   -7.2501 H   0  0  0  0  0  0  0  0  0  0  0  0
   54.7599  154.9766   -2.7227 H   0  0  0  0  0  0  0  0  0  0  0  0
   54.8282  156.7434   -2.5155 H   0  0  0  0  0  0  0  0  0  0  0  0
   53.5328  155.2646   -4.8807 H   0  0  0  0  0  0  0  0  0  0  0  0
   52.6606  157.5761   -4.2008 H   0  0  0  0  0  0  0  0  0  0  0  0
   53.4962  157.6812   -5.7319 H   0  0  0  0  0  0  0  0  0  0  0  0
   53.0867  155.7885   -1.4413 H   0  0  0  0  0  0  0  0  0  0  0  0
  1  3  2  0  0  0  0
  1  9  1  0  0  0  0
  2  9  2  0  0  0  0
  2 10  1  0  0  0  0
  3  8  1  0  0  0  0
  3 10  1  0  0  0  0
  4  5  1  0  0  0  0
  5  6  1  0  0  0  0
  6 10  1  0  0  0  0
  7  8  1  0  0  0  0
  7 12  1  0  0  0  0
  8 11  1  0  0  0  0
  1 13  1  0  0  0  0
  2 14  1  0  0  0  0
  4 15  1  0  0  0  0
  4 16  1  0  0  0  0
  4 17  1  0  0  0  0
  5 18  1  0  0  0  0
  5 19  1  0  0  0  0
  6 20  1  0  0  0  0
  6 21  1  0  0  0  0
  7 22  1  0  0  0  0
  7 23  1  0  0  0  0
  8 24  1  0  0  0  0
 11 25  1  0  0  0  0
 11 26  1  0  0  0  0
 12 27  1  0  0  0  0
M  END
> <FRED Chemgauss4 score>
-6.397885

$$$$
C70628574	P108955020
  -OEChem-05122015083D

 29 30  0     1  0  0  0  0  0999 V2000
   53.4533  156.3073   -3.8310 C   0  0  0  0  0  0  0  0  0  0  0  0
   57.7521  155.8114   -6.7588 C   0  0  0  0  0  0  0  0  0  0  0  0
   54.8913  156.4061   -3.3842 C   0  0  0  0  0  0  0  0  0  0  0  0
   55.5097  155.1205   -3.9276 C   0  0  0  0  0  0  0  0  0  0  0  0
   58.4060  153.5201   -6.8008 C   0  0  0  0  0  0  0  0  0  0  0  0
   56.9054  153.6170   -6.9947 C   0  0  0  0  0  0  0  0  0  0  0  0
   58.9028  154.9185   -7.1513 C   0  0  2  0  0  0  0  0  0  0  0  0
   54.6938  154.8137   -5.1774 C   0  0  2  0  0  0  0  0  0  0  0  0
   55.2734  155.4566   -6.4304 C   0  0  0  0  0  0  0  0  0  0  0  0
   53.4021  155.3684   -4.8558 N   0  0  0  0  0  0  0  0  0  0  0  0
   56.6230  154.9968   -6.6765 N   0  0  0  0  0  0  0  0  0  0  0  0
   60.0864  155.2725   -6.3593 N   0  0  0  0  0  0  0  0  0  0  0  0
   52.5275  156.9673   -3.3850 O   0  0  0  0  0  0  0  0  0  0  0  0
   57.8202  157.0194   -6.5859 O   0  0  0  0  0  0  0  0  0  0  0  0
   55.3437  157.2943   -3.8355 H   0  0  0  0  0  0  0  0  0  0  0  0
   54.9598  156.4612   -2.2951 H   0  0  0  0  0  0  0  0  0  0  0  0
   56.5843  155.2121   -4.1119 H   0  0  0  0  0  0  0  0  0  0  0  0
   55.3661  154.3187   -3.1916 H   0  0  0  0  0  0  0  0  0  0  0  0
   58.6842  153.1791   -5.8018 H   0  0  0  0  0  0  0  0  0  0  0  0
   58.8198  152.8059   -7.5210 H   0  0  0  0  0  0  0  0  0  0  0  0
   56.6052  153.3884   -8.0201 H   0  0  0  0  0  0  0  0  0  0  0  0
   56.3590  152.9811   -6.2921 H   0  0  0  0  0  0  0  0  0  0  0  0
   59.1147  154.9976   -8.2257 H   0  0  0  0  0  0  0  0  0  0  0  0
   54.5913  153.7385   -5.3381 H   0  0  0  0  0  0  0  0  0  0  0  0
   55.3059  156.5450   -6.3230 H   0  0  0  0  0  0  0  0  0  0  0  0
   54.6710  155.2069   -7.3088 H   0  0  0  0  0  0  0  0  0  0  0  0
   52.5443  155.1013   -5.3285 H   0  0  0  0  0  0  0  0  0  0  0  0
   60.2632  156.2388   -6.1800 H   0  0  0  0  0  0  0  0  0  0  0  0
   60.7771  154.5687   -6.2017 H   0  0  0  0  0  0  0  0  0  0  0  0
  1  3  1  0  0  0  0
  1 10  1  0  0  0  0
  1 13  2  0  0  0  0
  2  7  1  0  0  0  0
  2 11  1  0  0  0  0
  2 14  2  0  0  0  0
  3  4  1  0  0  0  0
  4  8  1  0  0  0  0
  5  6  1  0  0  0  0
  5  7  1  0  0  0  0
  6 11  1  0  0  0  0
  7 12  1  0  0  0  0
  8  9  1  0  0  0  0
  8 10  1  0  0  0  0
  9 11  1  0  0  0  0
  3 15  1  0  0  0  0
  3 16  1  0  0  0  0
  4 17  1  0  0  0  0
  4 18  1  0  0  0  0
  5 19  1  0  0  0  0
  5 20  1  0  0  0  0
  6 21  1  0  0  0  0
  6 22  1  0  0  0  0
  7 23  1  0  0  0  0
  8 24  1  0  0  0  0
  9 25  1  0  0  0  0
  9 26  1  0  0  0  0
 10 27  1  0  0  0  0
 12 28  1  0  0  0  0
 12 29  1  0  0  0  0
M  END
> <FRED Chemgauss4 score>
-6.394259

$$$$
C92292923	P144481736
  -OEChem-05122015083D

 43 45  0     0  0  0  0  0  0999 V2000
   59.1301  155.0465   -7.7254 C   0  0  0  0  0  0  0  0  0  0  0  0
   58.2237  154.0747   -7.3269 C   0  0  0  0  0  0  0  0  0  0  0  0
   56.1077  153.4801   -6.2450 C   0  0  0  0  0  0  0  0  0  0  0  0
   54.7160  155.2188   -5.3412 C   0  0  0  0  0  0  0  0  0  0  0  0
   58.8220  156.3615   -7.4412 C   0  0  0  0  0  0  0  0  0  0  0  0
   57.0456  154.4400   -6.6616 C   0  0  0  0  0  0  0  0  0  0  0  0
   54.9455  153.8706   -5.5860 C   0  0  0  0  0  0  0  0  0  0  0  0
   56.8192  155.8106   -6.4162 C   0  0  0  0  0  0  0  0  0  0  0  0
   55.6486  156.1730   -5.7555 C   0  0  0  0  0  0  0  0  0  0  0  0
   51.9468  161.5297   -6.9502 C   0  0  0  0  0  0  0  0  0  0  0  0
   52.8005  161.9195   -5.9396 C   0  0  0  0  0  0  0  0  0  0  0  0
   53.0154  163.1206   -8.0166 C   0  0  0  0  0  0  0  0  0  0  0  0
   54.6522  158.0399   -4.4263 C   0  0  0  0  0  0  0  0  0  0  0  0
   54.5704  159.5361   -4.4700 C   0  0  0  0  0  0  0  0  0  0  0  0
   53.9537  152.8483   -5.1465 C   0  0  0  0  0  0  0  0  0  0  0  0
   50.9301  160.4612   -6.8653 C   0  0  0  0  0  0  0  0  0  0  0  0
   53.4304  164.0525   -9.0877 C   0  0  0  0  0  0  0  0  0  0  0  0
   52.9398  161.4012   -4.5374 C   0  0  0  0  0  0  0  0  0  0  0  0
   57.6970  156.7560   -6.8019 N   0  0  0  0  0  0  0  0  0  0  0  0
   52.0683  162.2176   -8.1418 N   0  0  0  0  0  0  0  0  0  0  0  0
   55.3771  157.5201   -5.4888 N   0  0  0  0  0  0  0  0  0  0  0  0
   53.2740  159.9965   -4.5112 N   0  0  0  0  0  0  0  0  0  0  0  0
   54.1043  157.4875   -3.4870 O   0  0  0  0  0  0  0  0  0  0  0  0
   55.6150  160.1673   -4.4490 O   0  0  0  0  0  0  0  0  0  0  0  0
   53.8018  163.1972   -6.4932 S   0  0  0  0  0  0  0  0  0  0  0  0
   60.0459  154.7823   -8.2410 H   0  0  0  0  0  0  0  0  0  0  0  0
   58.4415  153.0302   -7.5382 H   0  0  0  0  0  0  0  0  0  0  0  0
   56.2861  152.4234   -6.4364 H   0  0  0  0  0  0  0  0  0  0  0  0
   53.8097  155.5289   -4.8255 H   0  0  0  0  0  0  0  0  0  0  0  0
   59.4923  157.1645   -7.7293 H   0  0  0  0  0  0  0  0  0  0  0  0
   54.1837  152.5040   -4.1305 H   0  0  0  0  0  0  0  0  0  0  0  0
   52.9331  153.2533   -5.1533 H   0  0  0  0  0  0  0  0  0  0  0  0
   53.9537  151.9782   -5.8165 H   0  0  0  0  0  0  0  0  0  0  0  0
   49.9630  160.8612   -6.5206 H   0  0  0  0  0  0  0  0  0  0  0  0
   50.7635  159.9719   -7.8396 H   0  0  0  0  0  0  0  0  0  0  0  0
   51.2305  159.6605   -6.1686 H   0  0  0  0  0  0  0  0  0  0  0  0
   52.8457  164.9848   -9.0474 H   0  0  0  0  0  0  0  0  0  0  0  0
   54.4970  164.3191   -9.0097 H   0  0  0  0  0  0  0  0  0  0  0  0
   53.2961  163.6126  -10.0895 H   0  0  0  0  0  0  0  0  0  0  0  0
   53.7252  161.9449   -4.0011 H   0  0  0  0  0  0  0  0  0  0  0  0
   52.0097  161.5347   -3.9749 H   0  0  0  0  0  0  0  0  0  0  0  0
   55.7571  158.1996   -6.1540 H   0  0  0  0  0  0  0  0  0  0  0  0
   52.5091  159.3281   -4.5242 H   0  0  0  0  0  0  0  0  0  0  0  0
  1  2  2  0  0  0  0
  1  5  1  0  0  0  0
  2  6  1  0  0  0  0
  3  6  2  0  0  0  0
  3  7  1  0  0  0  0
  4  7  2  0  0  0  0
  4  9  1  0  0  0  0
  5 19  2  0  0  0  0
  6  8  1  0  0  0  0
  7 15  1  0  0  0  0
  8  9  2  0  0  0  0
  8 19  1  0  0  0  0
  9 21  1  0  0  0  0
 10 11  2  0  0  0  0
 10 16  1  0  0  0  0
 10 20  1  0  0  0  0
 11 18  1  0  0  0  0
 11 25  1  0  0  0  0
 12 17  1  0  0  0  0
 12 20  2  0  0  0  0
 12 25  1  0  0  0  0
 13 14  1  0  0  0  0
 13 21  1  0  0  0  0
 13 23  2  0  0  0  0
 14 22  1  0  0  0  0
 14 24  2  0  0  0  0
 18 22  1  0  0  0  0
  1 26  1  0  0  0  0
  2 27  1  0  0  0  0
  3 28  1  0  0  0  0
  4 29  1  0  0  0  0
  5 30  1  0  0  0  0
 15 31  1  0  0  0  0
 15 32  1  0  0  0  0
 15 33  1  0  0  0  0
 16 34  1  0  0  0  0
 16 35  1  0  0  0  0
 16 36  1  0  0  0  0
 17 37  1  0  0  0  0
 17 38  1  0  0  0  0
 17 39  1  0  0  0  0
 18 40  1  0  0  0  0
 18 41  1  0  0  0  0
 21 42  1  0  0  0  0
 22 43  1  0  0  0  0
M  END
> <FRED Chemgauss4 score>
-6.391732

$$$$
C88001803	P137647695
  -OEChem-05122015083D

 26 26  0     1  0  0  0  0  0999 V2000
   55.3101  158.0403   -2.5692 C   0  0  0  0  0  0  0  0  0  0  0  0
   54.7395  157.6087   -4.5301 C   0  0  0  0  0  0  0  0  0  0  0  0
   57.0013  159.6219   -1.6076 C   0  0  0  0  0  0  0  0  0  0  0  0
   56.1118  153.9272   -6.0909 C   0  0  0  0  0  0  0  0  0  0  0  0
   56.1662  158.3472   -1.4174 C   0  0  0  0  0  0  0  0  0  0  0  0
   54.7387  155.8204   -6.3210 C   0  0  0  0  0  0  0  0  0  0  0  0
   54.6452  157.3170   -6.0122 C   0  0  1  0  0  0  0  0  0  0  0  0
   55.8180  157.8540   -3.8229 N   0  0  0  0  0  0  0  0  0  0  0  0
   53.9852  157.9255   -2.4560 N   0  0  0  0  0  0  0  0  0  0  0  0
   53.6447  157.6494   -3.7241 N   0  0  0  0  0  0  0  0  0  0  0  0
   53.4336  157.8791   -6.5698 N   0  0  0  0  0  0  0  0  0  0  0  0
   55.9712  155.3140   -5.8188 O   0  0  0  0  0  0  0  0  0  0  0  0
   57.6072  159.5536   -2.5175 H   0  0  0  0  0  0  0  0  0  0  0  0
   57.6764  159.7903   -0.7626 H   0  0  0  0  0  0  0  0  0  0  0  0
   56.3510  160.4982   -1.7020 H   0  0  0  0  0  0  0  0  0  0  0  0
   57.0656  153.5720   -5.6931 H   0  0  0  0  0  0  0  0  0  0  0  0
   56.0703  153.7606   -7.1702 H   0  0  0  0  0  0  0  0  0  0  0  0
   55.2944  153.3857   -5.6089 H   0  0  0  0  0  0  0  0  0  0  0  0
   55.5718  158.4631   -0.4867 H   0  0  0  0  0  0  0  0  0  0  0  0
   56.8627  157.5120   -1.1927 H   0  0  0  0  0  0  0  0  0  0  0  0
   53.9294  155.2684   -5.8307 H   0  0  0  0  0  0  0  0  0  0  0  0
   54.6980  155.6207   -7.3973 H   0  0  0  0  0  0  0  0  0  0  0  0
   55.4604  157.8302   -6.5378 H   0  0  0  0  0  0  0  0  0  0  0  0
   52.6685  157.5053   -3.9544 H   0  0  0  0  0  0  0  0  0  0  0  0
   53.0809  157.5055   -7.4315 H   0  0  0  0  0  0  0  0  0  0  0  0
   53.0916  158.7476   -6.2022 H   0  0  0  0  0  0  0  0  0  0  0  0
  1  5  1  0  0  0  0
  1  8  1  0  0  0  0
  1  9  2  0  0  0  0
  2  7  1  0  0  0  0
  2  8  2  0  0  0  0
  2 10  1  0  0  0  0
  3  5  1  0  0  0  0
  4 12  1  0  0  0  0
  6  7  1  0  0  0  0
  6 12  1  0  0  0  0
  7 11  1  0  0  0  0
  9 10  1  0  0  0  0
  3 13  1  0  0  0  0
  3 14  1  0  0  0  0
  3 15  1  0  0  0  0
  4 16  1  0  0  0  0
  4 17  1  0  0  0  0
  4 18  1  0  0  0  0
  5 19  1  0  0  0  0
  5 20  1  0  0  0  0
  6 21  1  0  0  0  0
  6 22  1  0  0  0  0
  7 23  1  0  0  0  0
 10 24  1  0  0  0  0
 11 25  1  0  0  0  0
 11 26  1  0  0  0  0
M  END
> <FRED Chemgauss4 score>
-6.379313

$$$$
C82899427	P129595484
  -OEChem-05122015083D

 29 29  0     1  0  0  0  0  0999 V2000
   57.7943  154.3341   -6.1842 C   0  0  0  0  0  0  0  0  0  0  0  0
   59.2377  153.9911   -6.4879 C   0  0  0  0  0  0  0  0  0  0  0  0
   59.0432  156.3103   -6.3794 C   0  0  0  0  0  0  0  0  0  0  0  0
   57.6871  155.7342   -6.7481 C   0  0  2  0  0  0  0  0  0  0  0  0
   56.5160  156.5334   -6.2097 C   0  0  0  0  0  0  0  0  0  0  0  0
   53.7828  155.9030   -3.1477 C   0  0  0  0  0  0  0  0  0  0  0  0
   55.6282  157.2804   -4.1660 C   0  0  0  0  0  0  0  0  0  0  0  0
   55.0421  156.7211   -2.8711 C   0  0  1  0  0  0  0  0  0  0  0  0
   54.7401  157.7987   -1.9515 N   0  0  0  0  0  0  0  0  0  0  0  0
   59.9765  155.2204   -6.4343 O   0  0  0  0  0  0  0  0  0  0  0  0
   53.2860  155.3727   -1.9240 O   0  0  0  0  0  0  0  0  0  0  0  0
   56.3738  156.2638   -4.8240 O   0  0  0  0  0  0  0  0  0  0  0  0
   57.0899  153.6257   -6.6291 H   0  0  0  0  0  0  0  0  0  0  0  0
   57.6330  154.3411   -5.0993 H   0  0  0  0  0  0  0  0  0  0  0  0
   59.6585  153.2765   -5.7751 H   0  0  0  0  0  0  0  0  0  0  0  0
   59.3444  153.5818   -7.4982 H   0  0  0  0  0  0  0  0  0  0  0  0
   59.3638  157.0986   -7.0669 H   0  0  0  0  0  0  0  0  0  0  0  0
   59.0596  156.7101   -5.3595 H   0  0  0  0  0  0  0  0  0  0  0  0
   57.6107  155.6691   -7.8415 H   0  0  0  0  0  0  0  0  0  0  0  0
   55.5933  156.2497   -6.7224 H   0  0  0  0  0  0  0  0  0  0  0  0
   56.6901  157.6039   -6.3464 H   0  0  0  0  0  0  0  0  0  0  0  0
   54.0051  155.0600   -3.8102 H   0  0  0  0  0  0  0  0  0  0  0  0
   52.9984  156.5162   -3.6047 H   0  0  0  0  0  0  0  0  0  0  0  0
   56.2929  158.1295   -3.9729 H   0  0  0  0  0  0  0  0  0  0  0  0
   54.8317  157.6016   -4.8451 H   0  0  0  0  0  0  0  0  0  0  0  0
   55.7887  156.1044   -2.3568 H   0  0  0  0  0  0  0  0  0  0  0  0
   55.3458  158.5974   -1.9309 H   0  0  0  0  0  0  0  0  0  0  0  0
   54.0671  157.6373   -1.2260 H   0  0  0  0  0  0  0  0  0  0  0  0
   52.4904  154.8629   -2.1444 H   0  0  0  0  0  0  0  0  0  0  0  0
  1  2  1  0  0  0  0
  1  4  1  0  0  0  0
  2 10  1  0  0  0  0
  3  4  1  0  0  0  0
  3 10  1  0  0  0  0
  4  5  1  0  0  0  0
  5 12  1  0  0  0  0
  6  8  1  0  0  0  0
  6 11  1  0  0  0  0
  7  8  1  0  0  0  0
  7 12  1  0  0  0  0
  8  9  1  0  0  0  0
  1 13  1  0  0  0  0
  1 14  1  0  0  0  0
  2 15  1  0  0  0  0
  2 16  1  0  0  0  0
  3 17  1  0  0  0  0
  3 18  1  0  0  0  0
  4 19  1  0  0  0  0
  5 20  1  0  0  0  0
  5 21  1  0  0  0  0
  6 22  1  0  0  0  0
  6 23  1  0  0  0  0
  7 24  1  0  0  0  0
  7 25  1  0  0  0  0
  8 26  1  0  0  0  0
  9 27  1  0  0  0  0
  9 28  1  0  0  0  0
 11 29  1  0  0  0  0
M  END
> <FRED Chemgauss4 score>
-6.377089

$$$$
C70638491	P108965909
  -OEChem-05122015083D

 31 32  0     1  0  0  0  0  0999 V2000
   54.6451  158.2743   -3.2009 C   0  0  0  0  0  0  0  0  0  0  0  0
   54.1624  157.6962   -4.4623 C   0  0  0  0  0  0  0  0  0  0  0  0
   56.0127  158.4326   -3.7922 C   0  0  0  0  0  0  0  0  0  0  0  0
   58.2574  155.3759   -5.9426 C   0  0  0  0  0  0  0  0  0  0  0  0
   56.1016  154.5511   -6.9201 C   0  0  0  0  0  0  0  0  0  0  0  0
   57.5751  156.7198   -5.6782 C   0  0  0  0  0  0  0  0  0  0  0  0
   55.4909  155.9224   -6.6238 C   0  0  0  0  0  0  0  0  0  0  0  0
   55.5039  157.8336   -5.1578 C   0  0  1  0  0  0  0  0  0  0  0  0
   57.6164  154.6493   -7.1298 C   0  0  0  0  0  0  0  0  0  0  0  0
   58.2339  153.2675   -7.3257 C   0  0  0  0  0  0  0  0  0  0  0  0
   53.0006  157.2665   -4.7707 N   0  0  0  0  0  0  0  0  0  0  0  0
   56.1327  156.5478   -5.4597 N   0  0  0  0  0  0  0  0  0  0  0  0
   57.5525  152.5983   -8.4528 N   0  3  0  0  0  0  0  0  0  0  0  0
   54.1551  158.5132   -2.1484 O   0  0  0  0  0  0  0  0  0  0  0  0
   56.9843  158.8657   -3.2415 O   0  0  0  0  0  0  0  0  0  0  0  0
   59.3234  155.5423   -6.1379 H   0  0  0  0  0  0  0  0  0  0  0  0
   58.1932  154.7521   -5.0413 H   0  0  0  0  0  0  0  0  0  0  0  0
   55.8814  153.8676   -6.0894 H   0  0  0  0  0  0  0  0  0  0  0  0
   55.6267  154.1276   -7.8132 H   0  0  0  0  0  0  0  0  0  0  0  0
   58.0331  157.1685   -4.7883 H   0  0  0  0  0  0  0  0  0  0  0  0
   57.7674  157.3998   -6.5189 H   0  0  0  0  0  0  0  0  0  0  0  0
   55.5775  156.5622   -7.5121 H   0  0  0  0  0  0  0  0  0  0  0  0
   54.4204  155.7863   -6.4268 H   0  0  0  0  0  0  0  0  0  0  0  0
   55.4995  158.5468   -5.9859 H   0  0  0  0  0  0  0  0  0  0  0  0
   57.8041  155.2367   -8.0386 H   0  0  0  0  0  0  0  0  0  0  0  0
   58.0953  152.6479   -6.4414 H   0  0  0  0  0  0  0  0  0  0  0  0
   59.2906  153.3433   -7.5770 H   0  0  0  0  0  0  0  0  0  0  0  0
   52.3627  157.3726   -3.9697 H   0  0  0  0  0  0  0  0  0  0  0  0
   56.5328  152.7119   -8.3928 H   0  0  0  0  0  0  0  0  0  0  0  0
   57.7529  151.5901   -8.4636 H   0  0  0  0  0  0  0  0  0  0  0  0
   57.8561  152.9855   -9.3553 H   0  0  0  0  0  0  0  0  0  0  0  0
  1  2  1  0  0  0  0
  1  3  1  0  0  0  0
  1 14  2  0  0  0  0
  2  8  1  0  0  0  0
  2 11  2  0  0  0  0
  3  8  1  0  0  0  0
  3 15  2  0  0  0  0
  4  6  1  0  0  0  0
  4  9  1  0  0  0  0
  5  7  1  0  0  0  0
  5  9  1  0  0  0  0
  6 12  1  0  0  0  0
  7 12  1  0  0  0  0
  8 12  1  0  0  0  0
  9 10  1  0  0  0  0
 10 13  1  0  0  0  0
  4 16  1  0  0  0  0
  4 17  1  0  0  0  0
  5 18  1  0  0  0  0
  5 19  1  0  0  0  0
  6 20  1  0  0  0  0
  6 21  1  0  0  0  0
  7 22  1  0  0  0  0
  7 23  1  0  0  0  0
  8 24  1  0  0  0  0
  9 25  1  0  0  0  0
 10 26  1  0  0  0  0
 10 27  1  0  0  0  0
 11 28  1  0  0  0  0
 13 29  1  0  0  0  0
 13 30  1  0  0  0  0
 13 31  1  0  0  0  0
M  CHG  1  13   1
M  END
> <FRED Chemgauss4 score>
-6.375885

$$$$
C43232489	P65406561
  -OEChem-05122015083D

 27 28  0     1  0  0  0  0  0999 V2000
   55.2924  156.4079   -2.1252 C   0  0  0  0  0  0  0  0  0  0  0  0
   56.9648  156.3257   -6.4152 C   0  0  0  0  0  0  0  0  0  0  0  0
   55.8224  155.8005   -3.2391 C   0  0  0  0  0  0  0  0  0  0  0  0
   57.0542  154.1289   -6.4472 C   0  0  0  0  0  0  0  0  0  0  0  0
   53.6767  156.2303   -3.4994 C   0  0  0  0  0  0  0  0  0  0  0  0
   56.2263  155.1689   -6.1017 C   0  0  0  0  0  0  0  0  0  0  0  0
   59.3617  154.0105   -7.4170 C   0  0  0  0  0  0  0  0  0  0  0  0
   53.7256  155.6485   -6.4454 C   0  0  0  0  0  0  0  0  0  0  0  0
   54.8229  155.0862   -5.5084 C   0  0  2  0  0  0  0  0  0  0  0  0
   53.9563  156.6726   -2.2935 N   0  0  0  0  0  0  0  0  0  0  0  0
   58.1693  156.0471   -6.9210 N   0  0  0  0  0  0  0  0  0  0  0  0
   54.7754  155.6931   -4.1106 N   0  0  0  0  0  0  0  0  0  0  0  0
   58.1940  154.7035   -6.9278 N   0  0  0  0  0  0  0  0  0  0  0  0
   53.6680  157.1086   -6.3872 N   0  0  0  0  0  0  0  0  0  0  0  0
   55.8050  156.6680   -1.2106 H   0  0  0  0  0  0  0  0  0  0  0  0
   56.6781  157.3610   -6.2964 H   0  0  0  0  0  0  0  0  0  0  0  0
   56.8165  155.4488   -3.4774 H   0  0  0  0  0  0  0  0  0  0  0  0
   56.9329  153.0555   -6.3923 H   0  0  0  0  0  0  0  0  0  0  0  0
   52.7078  156.2711   -3.9781 H   0  0  0  0  0  0  0  0  0  0  0  0
   59.2316  153.8463   -8.4899 H   0  0  0  0  0  0  0  0  0  0  0  0
   60.2512  154.6180   -7.2283 H   0  0  0  0  0  0  0  0  0  0  0  0
   59.4618  153.0563   -6.8923 H   0  0  0  0  0  0  0  0  0  0  0  0
   53.9362  155.3516   -7.4802 H   0  0  0  0  0  0  0  0  0  0  0  0
   52.7340  155.2562   -6.1977 H   0  0  0  0  0  0  0  0  0  0  0  0
   54.5963  154.0129   -5.4113 H   0  0  0  0  0  0  0  0  0  0  0  0
   52.8119  157.5525   -6.6361 H   0  0  0  0  0  0  0  0  0  0  0  0
   54.5264  157.6067   -6.3028 H   0  0  0  0  0  0  0  0  0  0  0  0
  1  3  2  0  0  0  0
  1 10  1  0  0  0  0
  2  6  1  0  0  0  0
  2 11  2  0  0  0  0
  3 12  1  0  0  0  0
  4  6  2  0  0  0  0
  4 13  1  0  0  0  0
  5 10  2  0  0  0  0
  5 12  1  0  0  0  0
  6  9  1  0  0  0  0
  7 13  1  0  0  0  0
  8  9  1  0  0  0  0
  8 14  1  0  0  0  0
  9 12  1  0  0  0  0
 11 13  1  0  0  0  0
  1 15  1  0  0  0  0
  2 16  1  0  0  0  0
  3 17  1  0  0  0  0
  4 18  1  0  0  0  0
  5 19  1  0  0  0  0
  7 20  1  0  0  0  0
  7 21  1  0  0  0  0
  7 22  1  0  0  0  0
  8 23  1  0  0  0  0
  8 24  1  0  0  0  0
  9 25  1  0  0  0  0
 14 26  1  0  0  0  0
 14 27  1  0  0  0  0
M  END
> <FRED Chemgauss4 score>
-6.375032

$$$$
C90433671	P141417571
  -OEChem-05122015083D

 44 45  0     1  0  0  0  0  0999 V2000
   58.4790  161.2115   -3.5481 C   0  0  0  0  0  0  0  0  0  0  0  0
   53.6187  156.5481   -2.9802 C   0  0  0  0  0  0  0  0  0  0  0  0
   56.6880  159.5514   -0.6683 C   0  0  0  0  0  0  0  0  0  0  0  0
   55.6507  160.4038   -2.7873 C   0  0  0  0  0  0  0  0  0  0  0  0
   56.4547  158.1255   -1.1773 C   0  0  0  0  0  0  0  0  0  0  0  0
   55.4516  158.9493   -3.2254 C   0  0  0  0  0  0  0  0  0  0  0  0
   60.4687  162.1176   -4.7111 C   0  0  0  0  0  0  0  0  0  0  0  0
   59.4777  160.8938   -6.4399 C   0  0  0  0  0  0  0  0  0  0  0  0
   59.8365  160.8780   -4.1013 C   0  0  2  0  0  0  0  0  0  0  0  0
   56.8215  160.5577   -1.8138 C   0  0  0  0  0  0  0  0  0  0  0  0
   59.7811  159.9428   -5.2958 C   0  0  1  0  0  0  0  0  0  0  0  0
   58.8093  158.0535   -6.4111 C   0  0  0  0  0  0  0  0  0  0  0  0
   55.0449  156.6886   -2.5001 C   0  0  0  0  0  0  0  0  0  0  0  0
   55.2857  158.0641   -2.0648 N   0  0  0  0  0  0  0  0  0  0  0  0
   53.4890  156.8240   -4.3244 N   0  0  0  0  0  0  0  0  0  0  0  0
   58.0885  160.4083   -2.4940 N   0  0  0  0  0  0  0  0  0  0  0  0
   58.8311  158.8504   -5.1902 N   0  0  0  0  0  0  0  0  0  0  0  0
   57.8350  162.1305   -4.0406 O   0  0  0  0  0  0  0  0  0  0  0  0
   52.6879  156.1847   -2.2664 O   0  0  0  0  0  0  0  0  0  0  0  0
   60.0981  162.1436   -6.1009 O   0  0  0  0  0  0  0  0  0  0  0  0
   55.8424  159.8448   -0.0323 H   0  0  0  0  0  0  0  0  0  0  0  0
   57.5826  159.5699   -0.0342 H   0  0  0  0  0  0  0  0  0  0  0  0
   55.8014  161.0333   -3.6727 H   0  0  0  0  0  0  0  0  0  0  0  0
   54.7325  160.7570   -2.2998 H   0  0  0  0  0  0  0  0  0  0  0  0
   57.3549  157.7596   -1.6883 H   0  0  0  0  0  0  0  0  0  0  0  0
   56.2919  157.4779   -0.3069 H   0  0  0  0  0  0  0  0  0  0  0  0
   54.5543  158.9051   -3.8548 H   0  0  0  0  0  0  0  0  0  0  0  0
   56.2979  158.6276   -3.8464 H   0  0  0  0  0  0  0  0  0  0  0  0
   60.1466  163.0522   -4.2407 H   0  0  0  0  0  0  0  0  0  0  0  0
   61.5627  162.0688   -4.6687 H   0  0  0  0  0  0  0  0  0  0  0  0
   59.8700  160.5385   -7.3977 H   0  0  0  0  0  0  0  0  0  0  0  0
   58.4043  161.0817   -6.5571 H   0  0  0  0  0  0  0  0  0  0  0  0
   60.4337  160.4734   -3.2779 H   0  0  0  0  0  0  0  0  0  0  0  0
   56.8242  161.5746   -1.4060 H   0  0  0  0  0  0  0  0  0  0  0  0
   60.7764  159.5180   -5.4537 H   0  0  0  0  0  0  0  0  0  0  0  0
   58.5343  158.6798   -7.2637 H   0  0  0  0  0  0  0  0  0  0  0  0
   58.0811  157.2430   -6.3205 H   0  0  0  0  0  0  0  0  0  0  0  0
   59.7955  157.6194   -6.5968 H   0  0  0  0  0  0  0  0  0  0  0  0
   55.7514  156.4586   -3.3023 H   0  0  0  0  0  0  0  0  0  0  0  0
   55.2127  156.0196   -1.6517 H   0  0  0  0  0  0  0  0  0  0  0  0
   54.2944  157.0868   -4.8828 H   0  0  0  0  0  0  0  0  0  0  0  0
   52.5967  156.7755   -4.8059 H   0  0  0  0  0  0  0  0  0  0  0  0
   58.7216  159.6782   -2.1822 H   0  0  0  0  0  0  0  0  0  0  0  0
   59.0894  158.2500   -4.4057 H   0  0  0  0  0  0  0  0  0  0  0  0
  1  9  1  0  0  0  0
  1 16  1  0  0  0  0
  1 18  2  0  0  0  0
  2 13  1  0  0  0  0
  2 15  1  0  0  0  0
  2 19  2  0  0  0  0
  3  5  1  0  0  0  0
  3 10  1  0  0  0  0
  4  6  1  0  0  0  0
  4 10  1  0  0  0  0
  5 14  1  0  0  0  0
  6 14  1  0  0  0  0
  7  9  1  0  0  0  0
  7 20  1  0  0  0  0
  8 11  1  0  0  0  0
  8 20  1  0  0  0  0
  9 11  1  0  0  0  0
 10 16  1  0  0  0  0
 11 17  1  0  0  0  0
 12 17  1  0  0  0  0
 13 14  1  0  0  0  0
  3 21  1  0  0  0  0
  3 22  1  0  0  0  0
  4 23  1  0  0  0  0
  4 24  1  0  0  0  0
  5 25  1  0  0  0  0
  5 26  1  0  0  0  0
  6 27  1  0  0  0  0
  6 28  1  0  0  0  0
  7 29  1  0  0  0  0
  7 30  1  0  0  0  0
  8 31  1  0  0  0  0
  8 32  1  0  0  0  0
  9 33  1  0  0  0  0
 10 34  1  0  0  0  0
 11 35  1  0  0  0  0
 12 36  1  0  0  0  0
 12 37  1  0  0  0  0
 12 38  1  0  0  0  0
 13 39  1  0  0  0  0
 13 40  1  0  0  0  0
 15 41  1  0  0  0  0
 15 42  1  0  0  0  0
 16 43  1  0  0  0  0
 17 44  1  0  0  0  0
M  END
> <FRED Chemgauss4 score>
-6.374959

$$$$
C88984598	P139179454
  -OEChem-05122015083D

 33 34  0     1  0  0  0  0  0999 V2000
   57.1848  157.0964   -4.4845 C   0  0  0  0  0  0  0  0  0  0  0  0
   57.6228  156.5635   -5.6769 C   0  0  0  0  0  0  0  0  0  0  0  0
   55.7657  157.2157   -4.4407 C   0  0  0  0  0  0  0  0  0  0  0  0
   55.1730  156.7696   -5.6016 C   0  0  0  0  0  0  0  0  0  0  0  0
   56.8939  163.3905   -3.6842 C   0  0  0  0  0  0  0  0  0  0  0  0
   57.3269  162.2974   -2.7395 C   0  0  0  0  0  0  0  0  0  0  0  0
   55.4517  163.5967   -3.2813 C   0  0  0  0  0  0  0  0  0  0  0  0
   56.0721  161.4468   -2.6120 C   0  0  2  0  0  0  0  0  0  0  0  0
   53.7363  156.7237   -5.9559 C   0  0  0  0  0  0  0  0  0  0  0  0
   56.0238  160.3057   -3.6189 C   0  0  0  0  0  0  0  0  0  0  0  0
   53.0311  155.6511   -5.2921 N   0  0  0  0  0  0  0  0  0  0  0  0
   54.8303  159.5422   -3.4419 N   0  0  0  0  0  0  0  0  0  0  0  0
   53.5357  157.3353   -3.0904 O   0  0  0  0  0  0  0  0  0  0  0  0
   55.7205  157.6434   -1.8837 O   0  0  0  0  0  0  0  0  0  0  0  0
   54.9553  162.3185   -2.8622 O   0  0  0  0  0  0  0  0  0  0  0  0
   56.3257  156.2097   -6.7374 S   0  0  0  0  0  0  0  0  0  0  0  0
   54.8865  157.8621   -3.0500 S   0  0  0  0  0  0  0  0  0  0  0  0
   57.8556  157.3844   -3.6849 H   0  0  0  0  0  0  0  0  0  0  0  0
   58.6422  156.3649   -5.9759 H   0  0  0  0  0  0  0  0  0  0  0  0
   57.4724  164.3013   -3.4885 H   0  0  0  0  0  0  0  0  0  0  0  0
   57.0109  163.1319   -4.7398 H   0  0  0  0  0  0  0  0  0  0  0  0
   58.1481  161.7217   -3.1944 H   0  0  0  0  0  0  0  0  0  0  0  0
   57.6827  162.6755   -1.7713 H   0  0  0  0  0  0  0  0  0  0  0  0
   55.3410  164.3201   -2.4697 H   0  0  0  0  0  0  0  0  0  0  0  0
   54.8459  163.9267   -4.1310 H   0  0  0  0  0  0  0  0  0  0  0  0
   55.9669  161.0544   -1.6048 H   0  0  0  0  0  0  0  0  0  0  0  0
   53.2209  157.6615   -5.6885 H   0  0  0  0  0  0  0  0  0  0  0  0
   53.5813  156.5853   -7.0389 H   0  0  0  0  0  0  0  0  0  0  0  0
   56.8814  159.6577   -3.4671 H   0  0  0  0  0  0  0  0  0  0  0  0
   56.0358  160.7100   -4.6259 H   0  0  0  0  0  0  0  0  0  0  0  0
   52.2082  155.2718   -5.7249 H   0  0  0  0  0  0  0  0  0  0  0  0
   53.2505  155.4478   -4.3334 H   0  0  0  0  0  0  0  0  0  0  0  0
   53.9603  160.0475   -3.1540 H   0  0  0  0  0  0  0  0  0  0  0  0
  1  2  2  0  0  0  0
  1  3  1  0  0  0  0
  2 16  1  0  0  0  0
  3  4  2  0  0  0  0
  3 17  1  0  0  0  0
  4  9  1  0  0  0  0
  4 16  1  0  0  0  0
  5  6  1  0  0  0  0
  5  7  1  0  0  0  0
  6  8  1  0  0  0  0
  7 15  1  0  0  0  0
  8 10  1  0  0  0  0
  8 15  1  0  0  0  0
  9 11  1  0  0  0  0
 10 12  1  0  0  0  0
 12 17  1  0  0  0  0
 13 17  2  0  0  0  0
 14 17  2  0  0  0  0
  1 18  1  0  0  0  0
  2 19  1  0  0  0  0
  5 20  1  0  0  0  0
  5 21  1  0  0  0  0
  6 22  1  0  0  0  0
  6 23  1  0  0  0  0
  7 24  1  0  0  0  0
  7 25  1  0  0  0  0
  8 26  1  0  0  0  0
  9 27  1  0  0  0  0
  9 28  1  0  0  0  0
 10 29  1  0  0  0  0
 10 30  1  0  0  0  0
 11 31  1  0  0  0  0
 11 32  1  0  0  0  0
 12 33  1  0  0  0  0
M  END
> <FRED Chemgauss4 score>
-6.374599

$$$$
C94232859	P147685151
  -OEChem-05122015083D

 42 42  0     1  0  0  0  0  0999 V2000
   60.3773  162.3685   -4.1435 C   0  0  0  0  0  0  0  0  0  0  0  0
   54.6026  157.2760   -4.5954 C   0  0  0  0  0  0  0  0  0  0  0  0
   56.7161  160.0906   -4.9314 C   0  0  0  0  0  0  0  0  0  0  0  0
   57.9492  158.1642   -3.9037 C   0  0  0  0  0  0  0  0  0  0  0  0
   57.6163  161.0374   -4.1357 C   0  0  0  0  0  0  0  0  0  0  0  0
   58.8094  159.1746   -3.1429 C   0  0  0  0  0  0  0  0  0  0  0  0
   56.5713  158.7410   -4.2278 C   0  0  0  0  0  0  0  0  0  0  0  0
   53.6635  157.0509   -6.9303 C   0  0  0  0  0  0  0  0  0  0  0  0
   61.0531  162.5513   -6.5360 C   0  0  0  0  0  0  0  0  0  0  0  0
   59.7992  161.3704   -3.1731 C   0  0  0  0  0  0  0  0  0  0  0  0
   53.9566  156.3198   -5.6161 C   0  0  1  0  0  0  0  0  0  0  0  0
   54.8275  155.0875   -5.8536 C   0  0  0  0  0  0  0  0  0  0  0  0
   58.9334  160.4341   -3.8896 N   0  0  0  0  0  0  0  0  0  0  0  0
   52.6751  155.8728   -5.0535 N   0  0  0  0  0  0  0  0  0  0  0  0
   55.8035  157.8187   -5.0268 N   0  0  0  0  0  0  0  0  0  0  0  0
   60.5242  161.8178   -5.4086 N   0  0  0  0  0  0  0  0  0  0  0  0
   60.6717  163.5199   -3.8337 O   0  0  0  0  0  0  0  0  0  0  0  0
   54.0902  157.5294   -3.5049 O   0  0  0  0  0  0  0  0  0  0  0  0
   55.0193  154.3921   -4.7085 F   0  0  0  0  0  0  0  0  0  0  0  0
   56.0467  155.4269   -6.3305 F   0  0  0  0  0  0  0  0  0  0  0  0
   54.2660  154.2379   -6.7426 F   0  0  0  0  0  0  0  0  0  0  0  0
   55.7263  160.5458   -5.0387 H   0  0  0  0  0  0  0  0  0  0  0  0
   57.1232  159.9587   -5.9375 H   0  0  0  0  0  0  0  0  0  0  0  0
   58.4651  157.8610   -4.8188 H   0  0  0  0  0  0  0  0  0  0  0  0
   57.8255  157.2669   -3.2886 H   0  0  0  0  0  0  0  0  0  0  0  0
   57.7165  161.9932   -4.6667 H   0  0  0  0  0  0  0  0  0  0  0  0
   57.1238  161.2501   -3.1788 H   0  0  0  0  0  0  0  0  0  0  0  0
   58.3316  159.3662   -2.1740 H   0  0  0  0  0  0  0  0  0  0  0  0
   59.7978  158.7435   -2.9354 H   0  0  0  0  0  0  0  0  0  0  0  0
   56.0040  158.8719   -3.3003 H   0  0  0  0  0  0  0  0  0  0  0  0
   53.2032  156.3859   -7.6694 H   0  0  0  0  0  0  0  0  0  0  0  0
   54.5824  157.4453   -7.3806 H   0  0  0  0  0  0  0  0  0  0  0  0
   52.9761  157.8913   -6.7771 H   0  0  0  0  0  0  0  0  0  0  0  0
   60.2424  163.0502   -7.0734 H   0  0  0  0  0  0  0  0  0  0  0  0
   61.5646  161.8714   -7.2228 H   0  0  0  0  0  0  0  0  0  0  0  0
   61.7662  163.3065   -6.1947 H   0  0  0  0  0  0  0  0  0  0  0  0
   60.6085  160.8150   -2.6899 H   0  0  0  0  0  0  0  0  0  0  0  0
   59.2121  161.8913   -2.4111 H   0  0  0  0  0  0  0  0  0  0  0  0
   51.8882  156.4663   -5.1725 H   0  0  0  0  0  0  0  0  0  0  0  0
   52.6932  155.1132   -4.4144 H   0  0  0  0  0  0  0  0  0  0  0  0
   56.1949  157.5299   -5.9173 H   0  0  0  0  0  0  0  0  0  0  0  0
   60.2462  160.8509   -5.5493 H   0  0  0  0  0  0  0  0  0  0  0  0
  1 10  1  0  0  0  0
  1 16  1  0  0  0  0
  1 17  2  0  0  0  0
  2 11  1  0  0  0  0
  2 15  1  0  0  0  0
  2 18  2  0  0  0  0
  3  5  1  0  0  0  0
  3  7  1  0  0  0  0
  4  6  1  0  0  0  0
  4  7  1  0  0  0  0
  5 13  1  0  0  0  0
  6 13  1  0  0  0  0
  7 15  1  0  0  0  0
  8 11  1  0  0  0  0
  9 16  1  0  0  0  0
 10 13  1  0  0  0  0
 11 12  1  0  0  0  0
 11 14  1  0  0  0  0
 12 19  1  0  0  0  0
 12 20  1  0  0  0  0
 12 21  1  0  0  0  0
  3 22  1  0  0  0  0
  3 23  1  0  0  0  0
  4 24  1  0  0  0  0
  4 25  1  0  0  0  0
  5 26  1  0  0  0  0
  5 27  1  0  0  0  0
  6 28  1  0  0  0  0
  6 29  1  0  0  0  0
  7 30  1  0  0  0  0
  8 31  1  0  0  0  0
  8 32  1  0  0  0  0
  8 33  1  0  0  0  0
  9 34  1  0  0  0  0
  9 35  1  0  0  0  0
  9 36  1  0  0  0  0
 10 37  1  0  0  0  0
 10 38  1  0  0  0  0
 14 39  1  0  0  0  0
 14 40  1  0  0  0  0
 15 41  1  0  0  0  0
 16 42  1  0  0  0  0
M  END
> <FRED Chemgauss4 score>
-6.371121

$$$$
C37269428	P55419407
  -OEChem-05122015083D

 22 21  0     0  0  0  0  0  0999 V2000
   53.5008  156.0371   -3.3244 C   0  0  0  0  0  0  0  0  0  0  0  0
   54.4788  157.1097   -2.9643 C   0  0  0  0  0  0  0  0  0  0  0  0
   55.6950  156.4528   -5.9372 C   0  0  0  0  0  0  0  0  0  0  0  0
   56.7670  158.0290   -3.3126 C   0  0  0  0  0  0  0  0  0  0  0  0
   56.0643  156.0049   -4.5418 C   0  0  0  0  0  0  0  0  0  0  0  0
   55.1252  157.7079   -5.9507 N   0  0  0  0  0  0  0  0  0  0  0  0
   51.7281  155.5128   -4.8064 N   0  0  0  0  0  0  0  0  0  0  0  0
   52.6986  156.3947   -4.3805 N   0  0  0  0  0  0  0  0  0  0  0  0
   55.7236  157.0511   -3.5823 N   0  0  0  0  0  0  0  0  0  0  0  0
   53.5026  155.0133   -2.6593 O   0  0  0  0  0  0  0  0  0  0  0  0
   54.0842  157.9352   -2.1493 O   0  0  0  0  0  0  0  0  0  0  0  0
   55.9185  155.7951   -6.9498 O   0  0  0  0  0  0  0  0  0  0  0  0
   57.3887  157.6946   -2.4779 H   0  0  0  0  0  0  0  0  0  0  0  0
   56.3229  158.9946   -3.0558 H   0  0  0  0  0  0  0  0  0  0  0  0
   57.4010  158.1581   -4.1939 H   0  0  0  0  0  0  0  0  0  0  0  0
   57.1376  155.8113   -4.4650 H   0  0  0  0  0  0  0  0  0  0  0  0
   55.5030  155.1017   -4.2872 H   0  0  0  0  0  0  0  0  0  0  0  0
   54.9924  158.2294   -5.0906 H   0  0  0  0  0  0  0  0  0  0  0  0
   54.8202  158.1574   -6.8082 H   0  0  0  0  0  0  0  0  0  0  0  0
   51.6431  155.6306   -5.8151 H   0  0  0  0  0  0  0  0  0  0  0  0
   52.0978  154.5740   -4.6631 H   0  0  0  0  0  0  0  0  0  0  0  0
   52.8181  157.2924   -4.8392 H   0  0  0  0  0  0  0  0  0  0  0  0
  1  2  1  0  0  0  0
  1  8  1  0  0  0  0
  1 10  2  0  0  0  0
  2  9  1  0  0  0  0
  2 11  2  0  0  0  0
  3  5  1  0  0  0  0
  3  6  1  0  0  0  0
  3 12  2  0  0  0  0
  4  9  1  0  0  0  0
  5  9  1  0  0  0  0
  7  8  1  0  0  0  0
  4 13  1  0  0  0  0
  4 14  1  0  0  0  0
  4 15  1  0  0  0  0
  5 16  1  0  0  0  0
  5 17  1  0  0  0  0
  6 18  1  0  0  0  0
  6 19  1  0  0  0  0
  7 20  1  0  0  0  0
  7 21  1  0  0  0  0
  8 22  1  0  0  0  0
M  END
> <FRED Chemgauss4 score>
-6.369958

$$$$
C82381623	P128718450
  -OEChem-05122015083D

 29 30  0     1  0  0  0  0  0999 V2000
   57.1334  158.3802   -2.6944 C   0  0  0  0  0  0  0  0  0  0  0  0
   56.9093  157.9914   -4.0104 C   0  0  0  0  0  0  0  0  0  0  0  0
   56.0377  158.4808   -1.8524 C   0  0  0  0  0  0  0  0  0  0  0  0
   59.3528  157.0394   -7.2517 C   0  0  0  0  0  0  0  0  0  0  0  0
   54.5870  157.8489   -3.5179 C   0  0  0  0  0  0  0  0  0  0  0  0
   59.5622  155.6810   -7.2153 C   0  0  0  0  0  0  0  0  0  0  0  0
   55.6146  157.7189   -4.4381 C   0  0  0  0  0  0  0  0  0  0  0  0
   57.4869  156.1913   -6.6773 C   0  0  0  0  0  0  0  0  0  0  0  0
   58.0758  153.7460   -6.6699 C   0  0  0  0  0  0  0  0  0  0  0  0
   56.0482  155.9782   -6.2651 C   0  0  0  0  0  0  0  0  0  0  0  0
   55.3427  157.3002   -5.8391 C   0  0  1  0  0  0  0  0  0  0  0  0
   54.7657  158.2243   -2.2315 N   0  0  0  0  0  0  0  0  0  0  0  0
   58.0590  157.3506   -6.9155 N   0  0  0  0  0  0  0  0  0  0  0  0
   58.3582  155.1511   -6.8453 N   0  0  0  0  0  0  0  0  0  0  0  0
   53.8943  157.1444   -6.1053 N   0  0  0  0  0  0  0  0  0  0  0  0
   58.1342  158.5974   -2.3390 H   0  0  0  0  0  0  0  0  0  0  0  0
   57.7486  157.9033   -4.6950 H   0  0  0  0  0  0  0  0  0  0  0  0
   56.1597  158.7807   -0.8167 H   0  0  0  0  0  0  0  0  0  0  0  0
   60.0678  157.8092   -7.5029 H   0  0  0  0  0  0  0  0  0  0  0  0
   53.5561  157.6496   -3.7938 H   0  0  0  0  0  0  0  0  0  0  0  0
   60.4315  155.0695   -7.4131 H   0  0  0  0  0  0  0  0  0  0  0  0
   58.2867  153.4870   -5.6289 H   0  0  0  0  0  0  0  0  0  0  0  0
   57.0258  153.5532   -6.9066 H   0  0  0  0  0  0  0  0  0  0  0  0
   58.7081  153.1632   -7.3456 H   0  0  0  0  0  0  0  0  0  0  0  0
   56.0431  155.2489   -5.4429 H   0  0  0  0  0  0  0  0  0  0  0  0
   55.4977  155.4962   -7.0839 H   0  0  0  0  0  0  0  0  0  0  0  0
   55.6793  158.0895   -6.5401 H   0  0  0  0  0  0  0  0  0  0  0  0
   53.6370  156.5610   -6.8593 H   0  0  0  0  0  0  0  0  0  0  0  0
   53.2851  157.7792   -5.6568 H   0  0  0  0  0  0  0  0  0  0  0  0
  1  2  2  0  0  0  0
  1  3  1  0  0  0  0
  2  7  1  0  0  0  0
  3 12  2  0  0  0  0
  4  6  2  0  0  0  0
  4 13  1  0  0  0  0
  5  7  2  0  0  0  0
  5 12  1  0  0  0  0
  6 14  1  0  0  0  0
  7 11  1  0  0  0  0
  8 10  1  0  0  0  0
  8 13  2  0  0  0  0
  8 14  1  0  0  0  0
  9 14  1  0  0  0  0
 10 11  1  0  0  0  0
 11 15  1  0  0  0  0
  1 16  1  0  0  0  0
  2 17  1  0  0  0  0
  3 18  1  0  0  0  0
  4 19  1  0  0  0  0
  5 20  1  0  0  0  0
  6 21  1  0  0  0  0
  9 22  1  0  0  0  0
  9 23  1  0  0  0  0
  9 24  1  0  0  0  0
 10 25  1  0  0  0  0
 10 26  1  0  0  0  0
 11 27  1  0  0  0  0
 15 28  1  0  0  0  0
 15 29  1  0  0  0  0
M  END
> <FRED Chemgauss4 score>
-6.368071

$$$$
C97941799	P155495002
  -OEChem-05122015083D

 23 22  0     1  0  0  0  0  0999 V2000
   59.5067  155.8664   -7.1557 C   0  0  0  0  0  0  0  0  0  0  0  0
   53.8942  155.3527   -4.7147 C   0  0  0  0  0  0  0  0  0  0  0  0
   58.1045  155.2749   -7.1497 C   0  0  1  0  0  0  0  0  0  0  0  0
   55.4017  155.2369   -4.6824 C   0  0  0  0  0  0  0  0  0  0  0  0
   56.0445  155.6740   -5.9834 C   0  0  0  0  0  0  0  0  0  0  0  0
   58.1729  153.7689   -7.3093 C   0  0  0  0  0  0  0  0  0  0  0  0
   60.0678  155.9472   -5.9011 N   0  0  0  0  0  0  0  0  0  0  0  0
   53.3033  154.5902   -5.6952 N   0  0  0  0  0  0  0  0  0  0  0  0
   60.0672  156.2508   -8.1793 O   0  0  0  0  0  0  0  0  0  0  0  0
   53.2744  156.0806   -3.9433 O   0  0  0  0  0  0  0  0  0  0  0  0
   57.4604  155.5498   -5.9113 O   0  0  0  0  0  0  0  0  0  0  0  0
   57.3458  155.7675   -8.1686 F   0  0  0  0  0  0  0  0  0  0  0  0
   55.7858  153.9568   -4.4213 F   0  0  0  0  0  0  0  0  0  0  0  0
   55.9144  155.9937   -3.6726 F   0  0  0  0  0  0  0  0  0  0  0  0
   55.5918  154.8853   -6.9905 F   0  0  0  0  0  0  0  0  0  0  0  0
   55.6995  156.9492   -6.2807 F   0  0  0  0  0  0  0  0  0  0  0  0
   58.8778  153.2125   -6.2984 F   0  0  0  0  0  0  0  0  0  0  0  0
   56.9432  153.2112   -7.2991 F   0  0  0  0  0  0  0  0  0  0  0  0
   58.7755  153.4203   -8.4669 F   0  0  0  0  0  0  0  0  0  0  0  0
   59.5326  155.6227   -5.1026 H   0  0  0  0  0  0  0  0  0  0  0  0
   60.9992  156.3208   -5.7487 H   0  0  0  0  0  0  0  0  0  0  0  0
   53.8442  154.0086   -6.3272 H   0  0  0  0  0  0  0  0  0  0  0  0
   52.2959  154.5822   -5.8157 H   0  0  0  0  0  0  0  0  0  0  0  0
  1  3  1  0  0  0  0
  1  7  1  0  0  0  0
  1  9  2  0  0  0  0
  2  4  1  0  0  0  0
  2  8  1  0  0  0  0
  2 10  2  0  0  0  0
  3  6  1  0  0  0  0
  3 11  1  0  0  0  0
  3 12  1  0  0  0  0
  4  5  1  0  0  0  0
  4 13  1  0  0  0  0
  4 14  1  0  0  0  0
  5 11  1  0  0  0  0
  5 15  1  0  0  0  0
  5 16  1  0  0  0  0
  6 17  1  0  0  0  0
  6 18  1  0  0  0  0
  6 19  1  0  0  0  0
  7 20  1  0  0  0  0
  7 21  1  0  0  0  0
  8 22  1  0  0  0  0
  8 23  1  0  0  0  0
M  END
> <FRED Chemgauss4 score>
-6.367953

$$$$
C49689603	P74238009
  -OEChem-05122015083D

 29 29  0     1  0  0  0  0  0999 V2000
   59.0513  157.3457   -6.5136 C   0  0  0  0  0  0  0  0  0  0  0  0
   59.6392  156.6628   -7.7308 C   0  0  0  0  0  0  0  0  0  0  0  0
   58.3402  155.1114   -6.5759 C   0  0  0  0  0  0  0  0  0  0  0  0
   57.8224  156.5022   -6.2526 C   0  0  1  0  0  0  0  0  0  0  0  0
   57.2631  156.6356   -4.8492 C   0  0  0  0  0  0  0  0  0  0  0  0
   53.2879  155.3954   -4.7880 C   0  0  0  0  0  0  0  0  0  0  0  0
   55.4626  155.8755   -3.5442 C   0  0  0  0  0  0  0  0  0  0  0  0
   53.9384  155.9338   -3.5136 C   0  0  2  0  0  0  0  0  0  0  0  0
   51.8468  155.4730   -4.7146 N   0  0  0  0  0  0  0  0  0  0  0  0
   59.3035  155.2710   -7.6289 O   0  0  0  0  0  0  0  0  0  0  0  0
   53.4779  155.1868   -2.3870 O   0  0  0  0  0  0  0  0  0  0  0  0
   55.9091  156.2117   -4.8518 O   0  0  0  0  0  0  0  0  0  0  0  0
   59.7526  157.2778   -5.6730 H   0  0  0  0  0  0  0  0  0  0  0  0
   58.8302  158.4023   -6.6885 H   0  0  0  0  0  0  0  0  0  0  0  0
   59.1939  157.0464   -8.6549 H   0  0  0  0  0  0  0  0  0  0  0  0
   60.7251  156.7767   -7.7928 H   0  0  0  0  0  0  0  0  0  0  0  0
   58.8532  154.6521   -5.7236 H   0  0  0  0  0  0  0  0  0  0  0  0
   57.5463  154.4363   -6.9088 H   0  0  0  0  0  0  0  0  0  0  0  0
   57.0466  156.7740   -6.9805 H   0  0  0  0  0  0  0  0  0  0  0  0
   57.3078  157.6767   -4.5187 H   0  0  0  0  0  0  0  0  0  0  0  0
   57.8286  156.0114   -4.1525 H   0  0  0  0  0  0  0  0  0  0  0  0
   53.6184  155.9808   -5.6526 H   0  0  0  0  0  0  0  0  0  0  0  0
   53.5839  154.3544   -4.9544 H   0  0  0  0  0  0  0  0  0  0  0  0
   55.8225  154.8685   -3.3115 H   0  0  0  0  0  0  0  0  0  0  0  0
   55.9062  156.5950   -2.8485 H   0  0  0  0  0  0  0  0  0  0  0  0
   53.6185  156.9703   -3.3538 H   0  0  0  0  0  0  0  0  0  0  0  0
   51.2988  154.8487   -5.2788 H   0  0  0  0  0  0  0  0  0  0  0  0
   51.4268  156.2688   -4.2685 H   0  0  0  0  0  0  0  0  0  0  0  0
   52.5160  155.3000   -2.3586 H   0  0  0  0  0  0  0  0  0  0  0  0
  1  2  1  0  0  0  0
  1  4  1  0  0  0  0
  2 10  1  0  0  0  0
  3  4  1  0  0  0  0
  3 10  1  0  0  0  0
  4  5  1  0  0  0  0
  5 12  1  0  0  0  0
  6  8  1  0  0  0  0
  6  9  1  0  0  0  0
  7  8  1  0  0  0  0
  7 12  1  0  0  0  0
  8 11  1  0  0  0  0
  1 13  1  0  0  0  0
  1 14  1  0  0  0  0
  2 15  1  0  0  0  0
  2 16  1  0  0  0  0
  3 17  1  0  0  0  0
  3 18  1  0  0  0  0
  4 19  1  0  0  0  0
  5 20  1  0  0  0  0
  5 21  1  0  0  0  0
  6 22  1  0  0  0  0
  6 23  1  0  0  0  0
  7 24  1  0  0  0  0
  7 25  1  0  0  0  0
  8 26  1  0  0  0  0
  9 27  1  0  0  0  0
  9 28  1  0  0  0  0
 11 29  1  0  0  0  0
M  END
> <FRED Chemgauss4 score>
-6.366617

$$$$
C83746155	P131018728
  -OEChem-05122015083D

 31 31  0     1  0  0  0  0  0999 V2000
   54.4438  155.6665   -3.0503 C   0  0  0  0  0  0  0  0  0  0  0  0
   54.6569  155.0855   -5.0439 C   0  0  0  0  0  0  0  0  0  0  0  0
   59.3423  156.5084   -7.7109 C   0  0  0  0  0  0  0  0  0  0  0  0
   57.3775  158.0488   -7.7901 C   0  0  0  0  0  0  0  0  0  0  0  0
   58.8414  158.0095   -5.7658 C   0  0  0  0  0  0  0  0  0  0  0  0
   56.0404  155.7108   -7.1142 C   0  0  0  0  0  0  0  0  0  0  0  0
   57.2817  156.0574   -6.2738 C   0  0  0  0  0  0  0  0  0  0  0  0
   55.1295  154.6686   -6.4247 C   0  0  1  0  0  0  0  0  0  0  0  0
   58.2198  157.1409   -6.8719 C   0  0  0  0  0  0  0  0  0  0  0  0
   55.3875  155.3561   -3.9872 N   0  0  0  0  0  0  0  0  0  0  0  0
   53.1753  155.6048   -3.4607 N   0  0  0  0  0  0  0  0  0  0  0  0
   53.3395  155.2311   -4.7388 N   0  0  0  0  0  0  0  0  0  0  0  0
   55.8156  153.3710   -6.3608 N   0  0  0  0  0  0  0  0  0  0  0  0
   54.6883  155.9463   -2.0365 H   0  0  0  0  0  0  0  0  0  0  0  0
   59.9698  155.8518   -7.0972 H   0  0  0  0  0  0  0  0  0  0  0  0
   58.9451  155.8995   -8.5294 H   0  0  0  0  0  0  0  0  0  0  0  0
   59.9916  157.2768   -8.1452 H   0  0  0  0  0  0  0  0  0  0  0  0
   56.5607  158.5246   -7.2354 H   0  0  0  0  0  0  0  0  0  0  0  0
   57.9876  158.8455   -8.2305 H   0  0  0  0  0  0  0  0  0  0  0  0
   56.9342  157.4767   -8.6130 H   0  0  0  0  0  0  0  0  0  0  0  0
   58.0649  158.4757   -5.1485 H   0  0  0  0  0  0  0  0  0  0  0  0
   59.4771  157.4109   -5.1039 H   0  0  0  0  0  0  0  0  0  0  0  0
   59.4523  158.8184   -6.1794 H   0  0  0  0  0  0  0  0  0  0  0  0
   56.3461  155.3514   -8.1032 H   0  0  0  0  0  0  0  0  0  0  0  0
   55.4556  156.6239   -7.2779 H   0  0  0  0  0  0  0  0  0  0  0  0
   57.8692  155.1451   -6.1100 H   0  0  0  0  0  0  0  0  0  0  0  0
   56.9462  156.3871   -5.2812 H   0  0  0  0  0  0  0  0  0  0  0  0
   54.2505  154.5237   -7.0659 H   0  0  0  0  0  0  0  0  0  0  0  0
   52.5232  155.0993   -5.3248 H   0  0  0  0  0  0  0  0  0  0  0  0
   56.4341  153.1405   -7.1025 H   0  0  0  0  0  0  0  0  0  0  0  0
   55.4836  152.7070   -5.7016 H   0  0  0  0  0  0  0  0  0  0  0  0
  1 10  1  0  0  0  0
  1 11  2  0  0  0  0
  2  8  1  0  0  0  0
  2 10  2  0  0  0  0
  2 12  1  0  0  0  0
  3  9  1  0  0  0  0
  4  9  1  0  0  0  0
  5  9  1  0  0  0  0
  6  7  1  0  0  0  0
  6  8  1  0  0  0  0
  7  9  1  0  0  0  0
  8 13  1  0  0  0  0
 11 12  1  0  0  0  0
  1 14  1  0  0  0  0
  3 15  1  0  0  0  0
  3 16  1  0  0  0  0
  3 17  1  0  0  0  0
  4 18  1  0  0  0  0
  4 19  1  0  0  0  0
  4 20  1  0  0  0  0
  5 21  1  0  0  0  0
  5 22  1  0  0  0  0
  5 23  1  0  0  0  0
  6 24  1  0  0  0  0
  6 25  1  0  0  0  0
  7 26  1  0  0  0  0
  7 27  1  0  0  0  0
  8 28  1  0  0  0  0
 12 29  1  0  0  0  0
 13 30  1  0  0  0  0
 13 31  1  0  0  0  0
M  END
> <FRED Chemgauss4 score>
-6.362420

$$$$
C90313229	P141186972
  -OEChem-05122015083D

 33 34  0     1  0  0  0  0  0999 V2000
   58.8831  160.3898   -2.5731 C   0  0  0  0  0  0  0  0  0  0  0  0
   57.7140  159.5762   -2.5360 C   0  0  0  0  0  0  0  0  0  0  0  0
   58.7262  161.4839   -3.3952 C   0  0  0  0  0  0  0  0  0  0  0  0
   56.7079  160.0797   -3.3311 C   0  0  0  0  0  0  0  0  0  0  0  0
   55.8777  156.0202   -6.6759 C   0  0  0  0  0  0  0  0  0  0  0  0
   54.7452  156.0448   -5.6312 C   0  0  1  0  0  0  0  0  0  0  0  0
   55.5724  157.0834   -4.8353 C   0  0  1  0  0  0  0  0  0  0  0  0
   56.8281  156.5091   -5.5566 C   0  0  2  0  0  0  0  0  0  0  0  0
   59.3563  155.6683   -6.3901 C   0  0  0  0  0  0  0  0  0  0  0  0
   58.6810  156.9034   -6.9472 C   0  0  0  0  0  0  0  0  0  0  0  0
   53.5658  156.6609   -6.2225 N   0  0  0  0  0  0  0  0  0  0  0  0
   55.3005  158.5527   -5.0398 N   0  0  0  0  0  0  0  0  0  0  0  0
   54.6001  158.7406   -2.5733 O   0  0  0  0  0  0  0  0  0  0  0  0
   54.3174  160.7066   -4.1157 O   0  0  0  0  0  0  0  0  0  0  0  0
   57.8362  157.4542   -5.9546 O   0  0  0  0  0  0  0  0  0  0  0  0
   57.1744  161.5273   -4.1180 S   0  0  0  0  0  0  0  0  0  0  0  0
   55.0646  159.5378   -3.6925 S   0  0  0  0  0  0  0  0  0  0  0  0
   59.7927  160.1836   -2.0241 H   0  0  0  0  0  0  0  0  0  0  0  0
   57.6182  158.6682   -1.9548 H   0  0  0  0  0  0  0  0  0  0  0  0
   59.4483  162.2603   -3.6057 H   0  0  0  0  0  0  0  0  0  0  0  0
   56.1105  155.0314   -7.0822 H   0  0  0  0  0  0  0  0  0  0  0  0
   55.7892  156.7267   -7.5107 H   0  0  0  0  0  0  0  0  0  0  0  0
   54.5713  155.0996   -5.1177 H   0  0  0  0  0  0  0  0  0  0  0  0
   55.5724  156.8793   -3.7581 H   0  0  0  0  0  0  0  0  0  0  0  0
   57.2856  155.6784   -5.0033 H   0  0  0  0  0  0  0  0  0  0  0  0
   59.9625  155.9165   -5.5145 H   0  0  0  0  0  0  0  0  0  0  0  0
   58.6124  154.9175   -6.1040 H   0  0  0  0  0  0  0  0  0  0  0  0
   60.0001  155.2065   -7.1460 H   0  0  0  0  0  0  0  0  0  0  0  0
   58.0765  156.6483   -7.8227 H   0  0  0  0  0  0  0  0  0  0  0  0
   59.4256  157.6528   -7.2319 H   0  0  0  0  0  0  0  0  0  0  0  0
   52.9778  157.2146   -5.6356 H   0  0  0  0  0  0  0  0  0  0  0  0
   53.2736  156.3506   -7.1255 H   0  0  0  0  0  0  0  0  0  0  0  0
   55.6647  158.9225   -5.9075 H   0  0  0  0  0  0  0  0  0  0  0  0
  1  2  1  0  0  0  0
  1  3  2  0  0  0  0
  2  4  2  0  0  0  0
  3 16  1  0  0  0  0
  4 16  1  0  0  0  0
  4 17  1  0  0  0  0
  5  6  1  0  0  0  0
  5  8  1  0  0  0  0
  6  7  1  0  0  0  0
  6 11  1  0  0  0  0
  7  8  1  0  0  0  0
  7 12  1  0  0  0  0
  8 15  1  0  0  0  0
  9 10  1  0  0  0  0
 10 15  1  0  0  0  0
 12 17  1  0  0  0  0
 13 17  2  0  0  0  0
 14 17  2  0  0  0  0
  1 18  1  0  0  0  0
  2 19  1  0  0  0  0
  3 20  1  0  0  0  0
  5 21  1  0  0  0  0
  5 22  1  0  0  0  0
  6 23  1  0  0  0  0
  7 24  1  0  0  0  0
  8 25  1  0  0  0  0
  9 26  1  0  0  0  0
  9 27  1  0  0  0  0
  9 28  1  0  0  0  0
 10 29  1  0  0  0  0
 10 30  1  0  0  0  0
 11 31  1  0  0  0  0
 11 32  1  0  0  0  0
 12 33  1  0  0  0  0
M  END
> <FRED Chemgauss4 score>
-6.359320

$$$$
C81988202	P127905425
  -OEChem-05122015083D

 45 46  0     1  0  0  0  0  0999 V2000
   58.6565  161.3449   -2.4113 C   0  0  0  0  0  0  0  0  0  0  0  0
   58.8083  160.1717   -1.4435 C   0  0  0  0  0  0  0  0  0  0  0  0
   54.5882  156.7966   -6.2546 C   0  0  0  0  0  0  0  0  0  0  0  0
   54.1849  158.0828   -5.5329 C   0  0  0  0  0  0  0  0  0  0  0  0
   57.1836  161.3834   -2.8091 C   0  0  0  0  0  0  0  0  0  0  0  0
   57.4216  159.5498   -1.3035 C   0  0  0  0  0  0  0  0  0  0  0  0
   56.2831  156.3103   -4.4352 C   0  0  0  0  0  0  0  0  0  0  0  0
   56.0388  156.4047   -5.9494 C   0  0  1  0  0  0  0  0  0  0  0  0
   54.4175  158.0165   -4.0165 C   0  0  2  0  0  0  0  0  0  0  0  0
   56.6738  159.9726   -2.5585 C   0  0  0  0  0  0  0  0  0  0  0  0
   55.8486  157.5695   -3.6750 C   0  0  2  0  0  0  0  0  0  0  0  0
   57.9055  154.9505   -6.7888 C   0  0  0  0  0  0  0  0  0  0  0  0
   55.8271  153.9052   -5.8447 C   0  0  0  0  0  0  0  0  0  0  0  0
   56.3928  155.0839   -6.6326 C   0  0  0  0  0  0  0  0  0  0  0  0
   53.4575  157.0813   -3.4191 N   0  0  0  0  0  0  0  0  0  0  0  0
   58.3407  158.3552   -3.7466 O   0  0  0  0  0  0  0  0  0  0  0  0
   56.6335  159.5881   -5.1385 O   0  0  0  0  0  0  0  0  0  0  0  0
   57.0082  158.8961   -3.9221 S   0  0  0  0  0  0  0  0  0  0  0  0
   58.9694  162.2901   -1.9561 H   0  0  0  0  0  0  0  0  0  0  0  0
   59.2873  161.1840   -3.2931 H   0  0  0  0  0  0  0  0  0  0  0  0
   59.5164  159.4415   -1.8517 H   0  0  0  0  0  0  0  0  0  0  0  0
   59.1977  160.4943   -0.4724 H   0  0  0  0  0  0  0  0  0  0  0  0
   53.9107  155.9830   -5.9665 H   0  0  0  0  0  0  0  0  0  0  0  0
   54.4621  156.9388   -7.3348 H   0  0  0  0  0  0  0  0  0  0  0  0
   54.7566  158.9200   -5.9518 H   0  0  0  0  0  0  0  0  0  0  0  0
   53.1313  158.3032   -5.7467 H   0  0  0  0  0  0  0  0  0  0  0  0
   56.6538  162.0868   -2.1550 H   0  0  0  0  0  0  0  0  0  0  0  0
   57.0492  161.7206   -3.8415 H   0  0  0  0  0  0  0  0  0  0  0  0
   57.4734  158.4649   -1.1692 H   0  0  0  0  0  0  0  0  0  0  0  0
   56.9264  159.9732   -0.4209 H   0  0  0  0  0  0  0  0  0  0  0  0
   55.7311  155.4494   -4.0356 H   0  0  0  0  0  0  0  0  0  0  0  0
   57.3453  156.1082   -4.2484 H   0  0  0  0  0  0  0  0  0  0  0  0
   56.6989  157.1761   -6.3652 H   0  0  0  0  0  0  0  0  0  0  0  0
   54.2242  159.0082   -3.5897 H   0  0  0  0  0  0  0  0  0  0  0  0
   55.5891  159.9510   -2.4134 H   0  0  0  0  0  0  0  0  0  0  0  0
   55.9247  157.3680   -2.5979 H   0  0  0  0  0  0  0  0  0  0  0  0
   58.4084  154.9474   -5.8156 H   0  0  0  0  0  0  0  0  0  0  0  0
   58.3107  155.7807   -7.3766 H   0  0  0  0  0  0  0  0  0  0  0  0
   58.1610  154.0189   -7.3048 H   0  0  0  0  0  0  0  0  0  0  0  0
   56.2486  153.8612   -4.8346 H   0  0  0  0  0  0  0  0  0  0  0  0
   56.0527  152.9588   -6.3474 H   0  0  0  0  0  0  0  0  0  0  0  0
   54.7385  153.9845   -5.7540 H   0  0  0  0  0  0  0  0  0  0  0  0
   55.9403  155.0817   -7.6312 H   0  0  0  0  0  0  0  0  0  0  0  0
   52.5501  157.0311   -3.8208 H   0  0  0  0  0  0  0  0  0  0  0  0
   53.6799  156.6959   -2.5305 H   0  0  0  0  0  0  0  0  0  0  0  0
  1  2  1  0  0  0  0
  1  5  1  0  0  0  0
  2  6  1  0  0  0  0
  3  4  1  0  0  0  0
  3  8  1  0  0  0  0
  4  9  1  0  0  0  0
  5 10  1  0  0  0  0
  6 10  1  0  0  0  0
  7  8  1  0  0  0  0
  7 11  1  0  0  0  0
  8 14  1  0  0  0  0
  9 11  1  0  0  0  0
  9 15  1  0  0  0  0
 10 18  1  0  0  0  0
 11 18  1  0  0  0  0
 12 14  1  0  0  0  0
 13 14  1  0  0  0  0
 16 18  2  0  0  0  0
 17 18  2  0  0  0  0
  1 19  1  0  0  0  0
  1 20  1  0  0  0  0
  2 21  1  0  0  0  0
  2 22  1  0  0  0  0
  3 23  1  0  0  0  0
  3 24  1  0  0  0  0
  4 25  1  0  0  0  0
  4 26  1  0  0  0  0
  5 27  1  0  0  0  0
  5 28  1  0  0  0  0
  6 29  1  0  0  0  0
  6 30  1  0  0  0  0
  7 31  1  0  0  0  0
  7 32  1  0  0  0  0
  8 33  1  0  0  0  0
  9 34  1  0  0  0  0
 10 35  1  0  0  0  0
 11 36  1  0  0  0  0
 12 37  1  0  0  0  0
 12 38  1  0  0  0  0
 12 39  1  0  0  0  0
 13 40  1  0  0  0  0
 13 41  1  0  0  0  0
 13 42  1  0  0  0  0
 14 43  1  0  0  0  0
 15 44  1  0  0  0  0
 15 45  1  0  0  0  0
M  END
> <FRED Chemgauss4 score>
-6.356284

$$$$
C49753446	P74337722
  -OEChem-05122015083D

 38 38  0     1  0  0  0  0  0999 V2000
   54.7925  157.0675   -3.0692 C   0  0  0  0  0  0  0  0  0  0  0  0
   56.3290  159.0009   -0.8291 C   0  0  0  0  0  0  0  0  0  0  0  0
   57.7051  159.4408   -1.3224 C   0  0  0  0  0  0  0  0  0  0  0  0
   55.6313  160.6546   -2.4882 C   0  0  0  0  0  0  0  0  0  0  0  0
   55.3444  159.2411   -1.9790 C   0  0  1  0  0  0  0  0  0  0  0  0
   55.1665  156.2455   -4.2761 C   0  0  0  0  0  0  0  0  0  0  0  0
   53.4544  156.9269   -5.8178 C   0  0  0  0  0  0  0  0  0  0  0  0
   55.6835  156.5035   -6.6081 C   0  0  0  0  0  0  0  0  0  0  0  0
   53.0829  158.0454   -6.7742 C   0  0  0  0  0  0  0  0  0  0  0  0
   57.0971  157.0443   -6.4953 C   0  0  0  0  0  0  0  0  0  0  0  0
   55.5045  158.2590   -3.0254 N   0  0  0  0  0  0  0  0  0  0  0  0
   54.8769  157.0065   -5.5002 N   0  0  0  0  0  0  0  0  0  0  0  0
   53.9580  156.7116   -2.2413 O   0  0  0  0  0  0  0  0  0  0  0  0
   57.6665  162.0648   -1.5800 O   0  0  0  0  0  0  0  0  0  0  0  0
   58.0025  160.6376   -3.6499 O   0  0  0  0  0  0  0  0  0  0  0  0
   51.7047  157.9426   -7.1085 O   0  0  0  0  0  0  0  0  0  0  0  0
   57.0676  158.4637   -6.5764 O   0  0  0  0  0  0  0  0  0  0  0  0
   57.4028  160.8683   -2.3520 S   0  0  0  0  0  0  0  0  0  0  0  0
   56.3449  157.9565   -0.5008 H   0  0  0  0  0  0  0  0  0  0  0  0
   56.0379  159.6178    0.0302 H   0  0  0  0  0  0  0  0  0  0  0  0
   58.3742  159.7112   -0.5030 H   0  0  0  0  0  0  0  0  0  0  0  0
   58.1694  158.6691   -1.9432 H   0  0  0  0  0  0  0  0  0  0  0  0
   55.3232  160.8195   -3.5236 H   0  0  0  0  0  0  0  0  0  0  0  0
   55.1668  161.4009   -1.8359 H   0  0  0  0  0  0  0  0  0  0  0  0
   54.3093  159.1582   -1.6369 H   0  0  0  0  0  0  0  0  0  0  0  0
   56.2339  156.0079   -4.2437 H   0  0  0  0  0  0  0  0  0  0  0  0
   54.5888  155.3165   -4.2856 H   0  0  0  0  0  0  0  0  0  0  0  0
   52.8897  157.0002   -4.8830 H   0  0  0  0  0  0  0  0  0  0  0  0
   53.2614  155.9529   -6.2775 H   0  0  0  0  0  0  0  0  0  0  0  0
   55.2124  156.8168   -7.5452 H   0  0  0  0  0  0  0  0  0  0  0  0
   55.6887  155.4105   -6.5577 H   0  0  0  0  0  0  0  0  0  0  0  0
   53.6623  157.9560   -7.6984 H   0  0  0  0  0  0  0  0  0  0  0  0
   53.2656  159.0303   -6.3322 H   0  0  0  0  0  0  0  0  0  0  0  0
   57.7083  156.6713   -7.3231 H   0  0  0  0  0  0  0  0  0  0  0  0
   57.5643  156.7554   -5.5482 H   0  0  0  0  0  0  0  0  0  0  0  0
   56.1725  158.4495   -3.7680 H   0  0  0  0  0  0  0  0  0  0  0  0
   51.5098  158.6723   -7.7183 H   0  0  0  0  0  0  0  0  0  0  0  0
   57.9865  158.7671   -6.5004 H   0  0  0  0  0  0  0  0  0  0  0  0
  1  6  1  0  0  0  0
  1 11  1  0  0  0  0
  1 13  2  0  0  0  0
  2  3  1  0  0  0  0
  2  5  1  0  0  0  0
  3 18  1  0  0  0  0
  4  5  1  0  0  0  0
  4 18  1  0  0  0  0
  5 11  1  0  0  0  0
  6 12  1  0  0  0  0
  7  9  1  0  0  0  0
  7 12  1  0  0  0  0
  8 10  1  0  0  0  0
  8 12  1  0  0  0  0
  9 16  1  0  0  0  0
 10 17  1  0  0  0  0
 14 18  2  0  0  0  0
 15 18  2  0  0  0  0
  2 19  1  0  0  0  0
  2 20  1  0  0  0  0
  3 21  1  0  0  0  0
  3 22  1  0  0  0  0
  4 23  1  0  0  0  0
  4 24  1  0  0  0  0
  5 25  1  0  0  0  0
  6 26  1  0  0  0  0
  6 27  1  0  0  0  0
  7 28  1  0  0  0  0
  7 29  1  0  0  0  0
  8 30  1  0  0  0  0
  8 31  1  0  0  0  0
  9 32  1  0  0  0  0
  9 33  1  0  0  0  0
 10 34  1  0  0  0  0
 10 35  1  0  0  0  0
 11 36  1  0  0  0  0
 16 37  1  0  0  0  0
 17 38  1  0  0  0  0
M  END
> <FRED Chemgauss4 score>
-6.351972

$$$$
C35716825	P53011960
  -OEChem-05122015083D

 31 33  0     1  0  0  0  0  0999 V2000
   57.1486  153.2814   -7.2663 C   0  0  0  0  0  0  0  0  0  0  0  0
   56.3536  157.0841   -5.1946 C   0  0  0  0  0  0  0  0  0  0  0  0
   57.2385  157.8098   -4.3931 C   0  0  0  0  0  0  0  0  0  0  0  0
   56.5031  154.1037   -6.2982 C   0  0  0  0  0  0  0  0  0  0  0  0
   56.2459  152.5698   -8.0254 C   0  0  0  0  0  0  0  0  0  0  0  0
   56.1911  159.2755   -1.0234 C   0  0  0  0  0  0  0  0  0  0  0  0
   55.4534  158.1052   -2.7419 C   0  0  0  0  0  0  0  0  0  0  0  0
   55.0412  156.8651   -4.7907 C   0  0  0  0  0  0  0  0  0  0  0  0
   54.5799  157.3684   -3.5709 C   0  0  0  0  0  0  0  0  0  0  0  0
   56.7685  158.3123   -3.1691 C   0  0  0  0  0  0  0  0  0  0  0  0
   55.1313  153.9895   -6.3545 C   0  0  0  0  0  0  0  0  0  0  0  0
   53.3878  156.7984   -6.6406 C   0  0  0  0  0  0  0  0  0  0  0  0
   54.1006  154.6846   -5.5127 C   0  0  0  0  0  0  0  0  0  0  0  0
   55.1380  158.6625   -1.5113 N   0  0  0  0  0  0  0  0  0  0  0  0
   53.2456  157.1382   -3.1710 N   0  0  0  0  0  0  0  0  0  0  0  0
   54.1820  156.1243   -5.6361 N   0  0  3  0  0  0  0  0  0  0  0  0
   54.6272  152.8941   -7.5704 S   0  0  0  0  0  0  0  0  0  0  0  0
   57.6097  159.2327   -1.9782 S   0  0  0  0  0  0  0  0  0  0  0  0
   58.2204  153.2152   -7.4003 H   0  0  0  0  0  0  0  0  0  0  0  0
   56.7096  156.6909   -6.1445 H   0  0  0  0  0  0  0  0  0  0  0  0
   58.2619  157.9775   -4.7146 H   0  0  0  0  0  0  0  0  0  0  0  0
   57.0232  154.7462   -5.5990 H   0  0  0  0  0  0  0  0  0  0  0  0
   56.4595  151.8747   -8.8251 H   0  0  0  0  0  0  0  0  0  0  0  0
   56.1681  159.7827   -0.0687 H   0  0  0  0  0  0  0  0  0  0  0  0
   52.7886  156.0719   -7.1956 H   0  0  0  0  0  0  0  0  0  0  0  0
   54.0370  157.3288   -7.3425 H   0  0  0  0  0  0  0  0  0  0  0  0
   52.7165  157.5214   -6.1692 H   0  0  0  0  0  0  0  0  0  0  0  0
   53.0910  154.3775   -5.8066 H   0  0  0  0  0  0  0  0  0  0  0  0
   54.2223  154.4319   -4.4542 H   0  0  0  0  0  0  0  0  0  0  0  0
   52.9434  157.4622   -2.2754 H   0  0  0  0  0  0  0  0  0  0  0  0
   52.6554  156.5750   -3.7481 H   0  0  0  0  0  0  0  0  0  0  0  0
  1  4  1  0  0  0  0
  1  5  2  0  0  0  0
  2  3  2  0  0  0  0
  2  8  1  0  0  0  0
  3 10  1  0  0  0  0
  4 11  2  0  0  0  0
  5 17  1  0  0  0  0
  6 14  2  0  0  0  0
  6 18  1  0  0  0  0
  7  9  1  0  0  0  0
  7 10  2  0  0  0  0
  7 14  1  0  0  0  0
  8  9  2  0  0  0  0
  8 16  1  0  0  0  0
  9 15  1  0  0  0  0
 10 18  1  0  0  0  0
 11 13  1  0  0  0  0
 11 17  1  0  0  0  0
 12 16  1  0  0  0  0
 13 16  1  0  0  0  0
  1 19  1  0  0  0  0
  2 20  1  0  0  0  0
  3 21  1  0  0  0  0
  4 22  1  0  0  0  0
  5 23  1  0  0  0  0
  6 24  1  0  0  0  0
 12 25  1  0  0  0  0
 12 26  1  0  0  0  0
 12 27  1  0  0  0  0
 13 28  1  0  0  0  0
 13 29  1  0  0  0  0
 15 30  1  0  0  0  0
 15 31  1  0  0  0  0
M  END
> <FRED Chemgauss4 score>
-6.339638

$$$$
C34604564	P120599899
  -OEChem-05122015083D

 26 26  0     1  0  0  0  0  0999 V2000
   55.3642  159.1965   -2.4216 C   0  0  0  0  0  0  0  0  0  0  0  0
   55.1071  157.9443   -3.1957 C   0  0  2  0  0  0  0  0  0  0  0  0
   54.4043  158.2513   -4.5114 C   0  0  2  0  0  0  0  0  0  0  0  0
   53.9017  156.9652   -5.1696 C   0  0  1  0  0  0  0  0  0  0  0  0
   53.1425  156.0874   -4.1744 C   0  0  2  0  0  0  0  0  0  0  0  0
   53.9295  155.9178   -2.8750 C   0  0  1  0  0  0  0  0  0  0  0  0
   56.5550  161.2364   -2.4887 C   0  0  0  0  0  0  0  0  0  0  0  0
   54.8675  159.4417   -1.3306 O   0  0  0  0  0  0  0  0  0  0  0  0
   54.2662  157.1914   -2.3316 O   0  0  0  0  0  0  0  0  0  0  0  0
   55.3299  158.8924   -5.3874 O   0  0  0  0  0  0  0  0  0  0  0  0
   53.0317  157.3202   -6.2453 O   0  0  0  0  0  0  0  0  0  0  0  0
   52.9309  154.8100   -4.7739 O   0  0  0  0  0  0  0  0  0  0  0  0
   53.1071  155.2009   -1.9555 O   0  0  0  0  0  0  0  0  0  0  0  0
   56.2212  159.9955   -3.1187 O   0  0  0  0  0  0  0  0  0  0  0  0
   56.0672  157.4348   -3.3402 H   0  0  0  0  0  0  0  0  0  0  0  0
   53.5657  158.9424   -4.3575 H   0  0  0  0  0  0  0  0  0  0  0  0
   54.7378  156.4135   -5.6175 H   0  0  0  0  0  0  0  0  0  0  0  0
   52.1526  156.5168   -3.9758 H   0  0  0  0  0  0  0  0  0  0  0  0
   54.8368  155.3227   -3.0395 H   0  0  0  0  0  0  0  0  0  0  0  0
   57.2429  161.7964   -3.1269 H   0  0  0  0  0  0  0  0  0  0  0  0
   57.0189  161.0404   -1.5187 H   0  0  0  0  0  0  0  0  0  0  0  0
   55.6417  161.8179   -2.3428 H   0  0  0  0  0  0  0  0  0  0  0  0
   56.0621  158.2704   -5.5166 H   0  0  0  0  0  0  0  0  0  0  0  0
   52.3044  157.8258   -5.8528 H   0  0  0  0  0  0  0  0  0  0  0  0
   53.8093  154.4488   -4.9677 H   0  0  0  0  0  0  0  0  0  0  0  0
   53.6244  155.1051   -1.1414 H   0  0  0  0  0  0  0  0  0  0  0  0
  1  2  1  0  0  0  0
  1  8  2  0  0  0  0
  1 14  1  0  0  0  0
  2  3  1  0  0  0  0
  2  9  1  0  0  0  0
  3  4  1  0  0  0  0
  3 10  1  0  0  0  0
  4  5  1  0  0  0  0
  4 11  1  0  0  0  0
  5  6  1  0  0  0  0
  5 12  1  0  0  0  0
  6  9  1  0  0  0  0
  6 13  1  0  0  0  0
  7 14  1  0  0  0  0
  2 15  1  0  0  0  0
  3 16  1  0  0  0  0
  4 17  1  0  0  0  0
  5 18  1  0  0  0  0
  6 19  1  0  0  0  0
  7 20  1  0  0  0  0
  7 21  1  0  0  0  0
  7 22  1  0  0  0  0
 10 23  1  0  0  0  0
 11 24  1  0  0  0  0
 12 25  1  0  0  0  0
 13 26  1  0  0  0  0
M  END
> <FRED Chemgauss4 score>
-6.339590

$$$$
C35904583	P53307746
  -OEChem-05122015083D

 22 22  0     0  0  0  0  0  0999 V2000
   54.8698  155.6207   -2.9384 C   0  0  0  0  0  0  0  0  0  0  0  0
   55.6269  155.6123   -4.0374 C   0  0  0  0  0  0  0  0  0  0  0  0
   53.4488  156.0086   -3.0439 C   0  0  0  0  0  0  0  0  0  0  0  0
   53.8149  156.3340   -5.4877 C   0  0  0  0  0  0  0  0  0  0  0  0
   56.5478  157.2864   -6.8403 C   0  0  0  0  0  0  0  0  0  0  0  0
   56.0831  155.9024   -6.4066 C   0  0  0  0  0  0  0  0  0  0  0  0
   57.2795  158.0374   -5.7345 C   0  0  0  0  0  0  0  0  0  0  0  0
   53.0330  156.3373   -4.3248 N   0  0  0  0  0  0  0  0  0  0  0  0
   55.1503  155.9517   -5.2869 N   0  0  0  0  0  0  0  0  0  0  0  0
   52.7254  156.0264   -2.0527 O   0  0  0  0  0  0  0  0  0  0  0  0
   53.3345  156.6470   -6.5790 O   0  0  0  0  0  0  0  0  0  0  0  0
   57.6579  159.3172   -6.2237 O   0  0  0  0  0  0  0  0  0  0  0  0
   55.2660  155.3515   -1.9671 H   0  0  0  0  0  0  0  0  0  0  0  0
   56.6732  155.3306   -3.9824 H   0  0  0  0  0  0  0  0  0  0  0  0
   57.2151  157.1896   -7.7058 H   0  0  0  0  0  0  0  0  0  0  0  0
   55.6957  157.8862   -7.1845 H   0  0  0  0  0  0  0  0  0  0  0  0
   55.5649  155.4040   -7.2317 H   0  0  0  0  0  0  0  0  0  0  0  0
   56.9313  155.2780   -6.1083 H   0  0  0  0  0  0  0  0  0  0  0  0
   56.6380  158.1791   -4.8592 H   0  0  0  0  0  0  0  0  0  0  0  0
   58.1838  157.5003   -5.4310 H   0  0  0  0  0  0  0  0  0  0  0  0
   52.0597  156.6085   -4.4337 H   0  0  0  0  0  0  0  0  0  0  0  0
   58.1198  159.7686   -5.4988 H   0  0  0  0  0  0  0  0  0  0  0  0
  1  2  2  0  0  0  0
  1  3  1  0  0  0  0
  2  9  1  0  0  0  0
  3  8  1  0  0  0  0
  3 10  2  0  0  0  0
  4  8  1  0  0  0  0
  4  9  1  0  0  0  0
  4 11  2  0  0  0  0
  5  6  1  0  0  0  0
  5  7  1  0  0  0  0
  6  9  1  0  0  0  0
  7 12  1  0  0  0  0
  1 13  1  0  0  0  0
  2 14  1  0  0  0  0
  5 15  1  0  0  0  0
  5 16  1  0  0  0  0
  6 17  1  0  0  0  0
  6 18  1  0  0  0  0
  7 19  1  0  0  0  0
  7 20  1  0  0  0  0
  8 21  1  0  0  0  0
 12 22  1  0  0  0  0
M  END
> <FRED Chemgauss4 score>
-6.337440

$$$$
C85227045	P133358857
  -OEChem-05122015083D

 25 26  0     1  0  0  0  0  0999 V2000
   59.1037  156.1918   -7.1679 C   0  0  0  0  0  0  0  0  0  0  0  0
   58.0719  154.0305   -6.9473 C   0  0  0  0  0  0  0  0  0  0  0  0
   60.0224  155.6060   -8.0239 C   0  0  0  0  0  0  0  0  0  0  0  0
   59.0366  153.5415   -7.8133 C   0  0  0  0  0  0  0  0  0  0  0  0
   58.1130  155.3821   -6.6236 C   0  0  0  0  0  0  0  0  0  0  0  0
   57.1367  155.9393   -5.7307 C   0  0  0  0  0  0  0  0  0  0  0  0
   55.3852  156.1458   -4.6493 C   0  0  0  0  0  0  0  0  0  0  0  0
   52.9972  155.3757   -4.8695 C   0  0  0  0  0  0  0  0  0  0  0  0
   54.0727  156.0626   -3.9950 C   0  0  2  0  0  0  0  0  0  0  0  0
   60.0143  154.2971   -8.3618 N   0  0  0  0  0  0  0  0  0  0  0  0
   55.9452  155.3176   -5.4943 N   0  0  0  0  0  0  0  0  0  0  0  0
   57.3302  157.0907   -5.0805 N   0  0  0  0  0  0  0  0  0  0  0  0
   52.4628  156.2890   -5.8545 N   0  0  0  0  0  0  0  0  0  0  0  0
   56.1448  157.2315   -4.3481 O   0  0  0  0  0  0  0  0  0  0  0  0
   53.6034  157.3844   -3.6606 O   0  0  0  0  0  0  0  0  0  0  0  0
   59.1683  157.2508   -6.9392 H   0  0  0  0  0  0  0  0  0  0  0  0
   57.3144  153.3670   -6.5426 H   0  0  0  0  0  0  0  0  0  0  0  0
   60.8148  156.1941   -8.4752 H   0  0  0  0  0  0  0  0  0  0  0  0
   59.0481  152.4945   -8.0977 H   0  0  0  0  0  0  0  0  0  0  0  0
   52.1738  155.0226   -4.2391 H   0  0  0  0  0  0  0  0  0  0  0  0
   53.4189  154.5103   -5.3925 H   0  0  0  0  0  0  0  0  0  0  0  0
   54.1296  155.5235   -3.0240 H   0  0  0  0  0  0  0  0  0  0  0  0
   52.3224  157.2494   -5.5978 H   0  0  0  0  0  0  0  0  0  0  0  0
   52.0572  155.9134   -6.6926 H   0  0  0  0  0  0  0  0  0  0  0  0
   54.2669  157.7522   -3.0640 H   0  0  0  0  0  0  0  0  0  0  0  0
  1  3  1  0  0  0  0
  1  5  2  0  0  0  0
  2  4  2  0  0  0  0
  2  5  1  0  0  0  0
  3 10  2  0  0  0  0
  4 10  1  0  0  0  0
  5  6  1  0  0  0  0
  6 11  1  0  0  0  0
  6 12  2  0  0  0  0
  7  9  1  0  0  0  0
  7 11  2  0  0  0  0
  7 14  1  0  0  0  0
  8  9  1  0  0  0  0
  8 13  1  0  0  0  0
  9 15  1  0  0  0  0
 12 14  1  0  0  0  0
  1 16  1  0  0  0  0
  2 17  1  0  0  0  0
  3 18  1  0  0  0  0
  4 19  1  0  0  0  0
  8 20  1  0  0  0  0
  8 21  1  0  0  0  0
  9 22  1  0  0  0  0
 13 23  1  0  0  0  0
 13 24  1  0  0  0  0
 15 25  1  0  0  0  0
M  END
> <FRED Chemgauss4 score>
-6.336734

$$$$
C39065281	P59185761
  -OEChem-05122015083D

 16 16  0     0  0  0  0  0  0999 V2000
   54.0968  156.9652   -4.9823 C   0  0  0  0  0  0  0  0  0  0  0  0
   55.0570  156.1489   -5.5300 C   0  0  0  0  0  0  0  0  0  0  0  0
   54.2014  158.2008   -4.2741 C   0  0  0  0  0  0  0  0  0  0  0  0
   54.9575  153.9821   -6.7797 C   0  0  0  0  0  0  0  0  0  0  0  0
   53.0565  155.1817   -5.9377 N   0  0  0  0  0  0  0  0  0  0  0  0
   52.9024  156.3391   -5.2537 N   0  0  0  0  0  0  0  0  0  0  0  0
   54.3648  155.0975   -6.0873 N   0  3  0  0  0  0  0  0  0  0  0  0
   54.1683  159.4004   -5.0034 N   0  0  0  0  0  0  0  0  0  0  0  0
   54.3385  158.2530   -3.0252 O   0  0  0  0  0  0  0  0  0  0  0  0
   56.8164  156.4071   -5.5166 S   0  5  0  0  0  0  0  0  0  0  0  0
   55.1713  153.1899   -6.0570 H   0  0  0  0  0  0  0  0  0  0  0  0
   54.2755  153.6020   -7.5455 H   0  0  0  0  0  0  0  0  0  0  0  0
   55.8853  154.2999   -7.2641 H   0  0  0  0  0  0  0  0  0  0  0  0
   51.9662  156.6376   -5.0087 H   0  0  0  0  0  0  0  0  0  0  0  0
   54.0710  159.3564   -6.0120 H   0  0  0  0  0  0  0  0  0  0  0  0
   54.2381  160.3097   -4.5582 H   0  0  0  0  0  0  0  0  0  0  0  0
  1  2  2  0  0  0  0
  1  3  1  0  0  0  0
  1  6  1  0  0  0  0
  2  7  1  0  0  0  0
  2 10  1  0  0  0  0
  3  8  1  0  0  0  0
  3  9  2  0  0  0  0
  4  7  1  0  0  0  0
  5  6  1  0  0  0  0
  5  7  2  0  0  0  0
  4 11  1  0  0  0  0
  4 12  1  0  0  0  0
  4 13  1  0  0  0  0
  6 14  1  0  0  0  0
  8 15  1  0  0  0  0
  8 16  1  0  0  0  0
M  CHG  2   7   1  10  -1
M  END
> <FRED Chemgauss4 score>
-6.333525

$$$$
C63063083	P96833322
  -OEChem-05122015083D

 40 41  0     1  0  0  0  0  0999 V2000
   55.7295  155.1538   -5.6552 C   0  0  0  0  0  0  0  0  0  0  0  0
   54.6844  154.9171   -5.1123 C   0  0  0  0  0  0  0  0  0  0  0  0
   58.0206  154.5173   -6.2254 C   0  0  0  0  0  0  0  0  0  0  0  0
   59.2352  154.7925   -6.8535 C   0  0  0  0  0  0  0  0  0  0  0  0
   57.1413  156.6300   -7.0003 C   0  0  0  0  0  0  0  0  0  0  0  0
   56.9736  155.4361   -6.2989 C   0  0  0  0  0  0  0  0  0  0  0  0
   58.3560  156.9052   -7.6284 C   0  0  0  0  0  0  0  0  0  0  0  0
   59.4030  155.9864   -7.5550 C   0  0  0  0  0  0  0  0  0  0  0  0
   63.6302  157.5691  -10.8316 C   0  0  0  0  0  0  0  0  0  0  0  0
   64.4997  156.3920  -10.4042 C   0  0  0  0  0  0  0  0  0  0  0  0
   62.3251  157.5858  -10.0416 C   0  0  0  0  0  0  0  0  0  0  0  0
   64.6572  156.3602   -8.8899 C   0  0  0  0  0  0  0  0  0  0  0  0
   62.6025  157.4981   -8.5391 C   0  0  1  0  0  0  0  0  0  0  0  0
   58.5179  158.1878   -8.3755 C   0  0  0  0  0  0  0  0  0  0  0  0
   53.4121  154.6264   -4.4531 C   0  0  0  0  0  0  0  0  0  0  0  0
   61.3058  157.3999   -7.7475 C   0  0  0  0  0  0  0  0  0  0  0  0
   53.1666  155.5440   -3.3760 N   0  0  0  0  0  0  0  0  0  0  0  0
   63.3824  156.3333   -8.2482 O   0  0  0  0  0  0  0  0  0  0  0  0
   60.6050  156.2418   -8.1663 O   0  0  0  0  0  0  0  0  0  0  0  0
   57.9046  153.5829   -5.6819 H   0  0  0  0  0  0  0  0  0  0  0  0
   60.0469  154.0723   -6.7926 H   0  0  0  0  0  0  0  0  0  0  0  0
   56.3284  157.3511   -7.0609 H   0  0  0  0  0  0  0  0  0  0  0  0
   64.1735  158.5061  -10.6579 H   0  0  0  0  0  0  0  0  0  0  0  0
   63.4204  157.5124  -11.9053 H   0  0  0  0  0  0  0  0  0  0  0  0
   64.0176  155.4635  -10.7341 H   0  0  0  0  0  0  0  0  0  0  0  0
   65.4801  156.4468  -10.8888 H   0  0  0  0  0  0  0  0  0  0  0  0
   61.7557  158.4918  -10.2771 H   0  0  0  0  0  0  0  0  0  0  0  0
   61.7206  156.7253  -10.3560 H   0  0  0  0  0  0  0  0  0  0  0  0
   65.1999  155.4578   -8.5912 H   0  0  0  0  0  0  0  0  0  0  0  0
   65.2284  157.2240   -8.5301 H   0  0  0  0  0  0  0  0  0  0  0  0
   63.1538  158.3849   -8.2014 H   0  0  0  0  0  0  0  0  0  0  0  0
   58.8987  158.9705   -7.7091 H   0  0  0  0  0  0  0  0  0  0  0  0
   59.2158  158.0730   -9.2142 H   0  0  0  0  0  0  0  0  0  0  0  0
   57.5629  158.5235   -8.7989 H   0  0  0  0  0  0  0  0  0  0  0  0
   53.4120  153.6164   -4.0327 H   0  0  0  0  0  0  0  0  0  0  0  0
   52.5757  154.7097   -5.1529 H   0  0  0  0  0  0  0  0  0  0  0  0
   60.6866  158.2793   -7.9313 H   0  0  0  0  0  0  0  0  0  0  0  0
   61.5221  157.3217   -6.6809 H   0  0  0  0  0  0  0  0  0  0  0  0
   53.9362  155.8406   -2.7956 H   0  0  0  0  0  0  0  0  0  0  0  0
   52.2171  155.7203   -3.0851 H   0  0  0  0  0  0  0  0  0  0  0  0
  1  2  3  0  0  0  0
  1  6  1  0  0  0  0
  2 15  1  0  0  0  0
  3  4  2  0  0  0  0
  3  6  1  0  0  0  0
  4  8  1  0  0  0  0
  5  6  2  0  0  0  0
  5  7  1  0  0  0  0
  7  8  2  0  0  0  0
  7 14  1  0  0  0  0
  8 19  1  0  0  0  0
  9 10  1  0  0  0  0
  9 11  1  0  0  0  0
 10 12  1  0  0  0  0
 11 13  1  0  0  0  0
 12 18  1  0  0  0  0
 13 16  1  0  0  0  0
 13 18  1  0  0  0  0
 15 17  1  0  0  0  0
 16 19  1  0  0  0  0
  3 20  1  0  0  0  0
  4 21  1  0  0  0  0
  5 22  1  0  0  0  0
  9 23  1  0  0  0  0
  9 24  1  0  0  0  0
 10 25  1  0  0  0  0
 10 26  1  0  0  0  0
 11 27  1  0  0  0  0
 11 28  1  0  0  0  0
 12 29  1  0  0  0  0
 12 30  1  0  0  0  0
 13 31  1  0  0  0  0
 14 32  1  0  0  0  0
 14 33  1  0  0  0  0
 14 34  1  0  0  0  0
 15 35  1  0  0  0  0
 15 36  1  0  0  0  0
 16 37  1  0  0  0  0
 16 38  1  0  0  0  0
 17 39  1  0  0  0  0
 17 40  1  0  0  0  0
M  END
> <FRED Chemgauss4 score>
-6.329134

$$$$
C39136597	P59287216
  -OEChem-05122015083D

 23 22  0     0  0  0  0  0  0999 V2000
   53.7234  155.5658   -3.3627 C   0  0  0  0  0  0  0  0  0  0  0  0
   55.3044  158.1684   -2.7905 C   0  0  0  0  0  0  0  0  0  0  0  0
   56.4330  159.9522   -1.4491 C   0  0  0  0  0  0  0  0  0  0  0  0
   55.2219  155.7353   -3.5584 C   0  0  0  0  0  0  0  0  0  0  0  0
   55.6283  157.1672   -3.9004 C   0  0  0  0  0  0  0  0  0  0  0  0
   51.7267  155.0545   -4.5587 N   0  0  0  0  0  0  0  0  0  0  0  0
   56.7855  159.7647   -3.8381 N   0  0  0  0  0  0  0  0  0  0  0  0
   53.0928  155.2479   -4.5541 N   0  0  0  0  0  0  0  0  0  0  0  0
   56.1537  159.2673   -2.7005 N   0  0  0  0  0  0  0  0  0  0  0  0
   53.1675  155.6966   -2.2751 O   0  0  0  0  0  0  0  0  0  0  0  0
   54.3435  157.9950   -2.0376 O   0  0  0  0  0  0  0  0  0  0  0  0
   57.3000  159.5013   -0.9594 H   0  0  0  0  0  0  0  0  0  0  0  0
   55.5726  159.8795   -0.7783 H   0  0  0  0  0  0  0  0  0  0  0  0
   56.6439  161.0087   -1.6353 H   0  0  0  0  0  0  0  0  0  0  0  0
   55.5137  155.0804   -4.3891 H   0  0  0  0  0  0  0  0  0  0  0  0
   55.7400  155.3806   -2.6598 H   0  0  0  0  0  0  0  0  0  0  0  0
   55.1459  157.4914   -4.8294 H   0  0  0  0  0  0  0  0  0  0  0  0
   56.7144  157.1851   -4.0527 H   0  0  0  0  0  0  0  0  0  0  0  0
   51.5317  154.3401   -5.2588 H   0  0  0  0  0  0  0  0  0  0  0  0
   51.4837  154.6407   -3.6596 H   0  0  0  0  0  0  0  0  0  0  0  0
   56.9714  158.9731   -4.4525 H   0  0  0  0  0  0  0  0  0  0  0  0
   57.6932  160.1260   -3.5481 H   0  0  0  0  0  0  0  0  0  0  0  0
   53.6283  155.1584   -5.4120 H   0  0  0  0  0  0  0  0  0  0  0  0
  1  4  1  0  0  0  0
  1  8  1  0  0  0  0
  1 10  2  0  0  0  0
  2  5  1  0  0  0  0
  2  9  1  0  0  0  0
  2 11  2  0  0  0  0
  3  9  1  0  0  0  0
  4  5  1  0  0  0  0
  6  8  1  0  0  0  0
  7  9  1  0  0  0  0
  3 12  1  0  0  0  0
  3 13  1  0  0  0  0
  3 14  1  0  0  0  0
  4 15  1  0  0  0  0
  4 16  1  0  0  0  0
  5 17  1  0  0  0  0
  5 18  1  0  0  0  0
  6 19  1  0  0  0  0
  6 20  1  0  0  0  0
  7 21  1  0  0  0  0
  7 22  1  0  0  0  0
  8 23  1  0  0  0  0
M  END
> <FRED Chemgauss4 score>
-6.328403

$$$$
C19264076	P28486446
  -OEChem-05122015083D

 29 29  0     1  0  0  0  0  0999 V2000
   59.3552  153.8740   -7.6350 C   0  0  0  0  0  0  0  0  0  0  0  0
   57.9850  153.4223   -7.1957 C   0  0  0  0  0  0  0  0  0  0  0  0
   59.0731  155.2670   -8.1567 C   0  0  0  0  0  0  0  0  0  0  0  0
   57.4136  154.7062   -6.6193 C   0  0  2  0  0  0  0  0  0  0  0  0
   55.8987  154.7630   -6.6531 C   0  0  0  0  0  0  0  0  0  0  0  0
   54.0204  155.7440   -3.5625 C   0  0  0  0  0  0  0  0  0  0  0  0
   54.0542  156.1048   -6.0876 C   0  0  0  0  0  0  0  0  0  0  0  0
   53.4924  155.2930   -4.9244 C   0  0  2  0  0  0  0  0  0  0  0  0
   53.6819  157.1239   -3.2994 N   0  0  0  0  0  0  0  0  0  0  0  0
   57.9598  155.7770   -7.4078 O   0  0  0  0  0  0  0  0  0  0  0  0
   52.0681  155.3955   -4.9452 O   0  0  0  0  0  0  0  0  0  0  0  0
   55.4717  155.9909   -6.0849 O   0  0  0  0  0  0  0  0  0  0  0  0
   60.0250  153.9272   -6.7686 H   0  0  0  0  0  0  0  0  0  0  0  0
   59.8151  153.2229   -8.3829 H   0  0  0  0  0  0  0  0  0  0  0  0
   57.4095  153.0917   -8.0688 H   0  0  0  0  0  0  0  0  0  0  0  0
   58.0089  152.6043   -6.4705 H   0  0  0  0  0  0  0  0  0  0  0  0
   59.9298  155.9378   -8.0471 H   0  0  0  0  0  0  0  0  0  0  0  0
   58.7808  155.2429   -9.2119 H   0  0  0  0  0  0  0  0  0  0  0  0
   57.7658  154.8498   -5.5907 H   0  0  0  0  0  0  0  0  0  0  0  0
   55.4733  153.9383   -6.0750 H   0  0  0  0  0  0  0  0  0  0  0  0
   55.5377  154.7048   -7.6833 H   0  0  0  0  0  0  0  0  0  0  0  0
   53.5841  155.1275   -2.7694 H   0  0  0  0  0  0  0  0  0  0  0  0
   55.1081  155.6260   -3.5194 H   0  0  0  0  0  0  0  0  0  0  0  0
   53.7989  157.1642   -5.9873 H   0  0  0  0  0  0  0  0  0  0  0  0
   53.6945  155.7289   -7.0507 H   0  0  0  0  0  0  0  0  0  0  0  0
   53.7319  154.2333   -5.0729 H   0  0  0  0  0  0  0  0  0  0  0  0
   54.2478  157.6471   -2.6555 H   0  0  0  0  0  0  0  0  0  0  0  0
   52.7870  157.4685   -3.5979 H   0  0  0  0  0  0  0  0  0  0  0  0
   51.7421  154.8174   -4.2392 H   0  0  0  0  0  0  0  0  0  0  0  0
  1  2  1  0  0  0  0
  1  3  1  0  0  0  0
  2  4  1  0  0  0  0
  3 10  1  0  0  0  0
  4  5  1  0  0  0  0
  4 10  1  0  0  0  0
  5 12  1  0  0  0  0
  6  8  1  0  0  0  0
  6  9  1  0  0  0  0
  7  8  1  0  0  0  0
  7 12  1  0  0  0  0
  8 11  1  0  0  0  0
  1 13  1  0  0  0  0
  1 14  1  0  0  0  0
  2 15  1  0  0  0  0
  2 16  1  0  0  0  0
  3 17  1  0  0  0  0
  3 18  1  0  0  0  0
  4 19  1  0  0  0  0
  5 20  1  0  0  0  0
  5 21  1  0  0  0  0
  6 22  1  0  0  0  0
  6 23  1  0  0  0  0
  7 24  1  0  0  0  0
  7 25  1  0  0  0  0
  8 26  1  0  0  0  0
  9 27  1  0  0  0  0
  9 28  1  0  0  0  0
 11 29  1  0  0  0  0
M  END
> <FRED Chemgauss4 score>
-6.320758

$$$$
C82872757	P129533931
  -OEChem-05122015083D

 29 29  0     1  0  0  0  0  0999 V2000
   56.0991  154.8813   -5.9491 C   0  0  0  0  0  0  0  0  0  0  0  0
   57.1091  153.9911   -6.2965 C   0  0  0  0  0  0  0  0  0  0  0  0
   56.2197  156.2256   -6.2833 C   0  0  0  0  0  0  0  0  0  0  0  0
   58.2105  154.4912   -6.9722 C   0  0  0  0  0  0  0  0  0  0  0  0
   57.3610  156.6258   -6.9594 C   0  0  0  0  0  0  0  0  0  0  0  0
   59.3124  153.5634   -7.3620 C   0  0  0  0  0  0  0  0  0  0  0  0
   57.5431  158.0567   -7.3469 C   0  0  0  0  0  0  0  0  0  0  0  0
   53.9588  156.5545   -5.1393 C   0  0  0  0  0  0  0  0  0  0  0  0
   54.2655  156.3214   -3.6636 C   0  0  0  0  0  0  0  0  0  0  0  0
   55.1237  157.2003   -5.9066 C   0  0  1  0  0  0  0  0  0  0  0  0
   58.3630  155.7903   -7.3138 N   0  0  0  0  0  0  0  0  0  0  0  0
   55.6671  158.2993   -5.1377 N   0  0  0  0  0  0  0  0  0  0  0  0
   53.1378  155.7056   -3.0548 O   0  0  0  0  0  0  0  0  0  0  0  0
   55.2229  154.5189   -5.4190 H   0  0  0  0  0  0  0  0  0  0  0  0
   57.0277  152.9400   -6.0402 H   0  0  0  0  0  0  0  0  0  0  0  0
   59.1249  153.1467   -8.3588 H   0  0  0  0  0  0  0  0  0  0  0  0
   60.2805  154.0799   -7.3764 H   0  0  0  0  0  0  0  0  0  0  0  0
   59.4046  152.7341   -6.6489 H   0  0  0  0  0  0  0  0  0  0  0  0
   58.0567  158.6040   -6.5481 H   0  0  0  0  0  0  0  0  0  0  0  0
   58.1332  158.1460   -8.2673 H   0  0  0  0  0  0  0  0  0  0  0  0
   56.5777  158.5413   -7.5383 H   0  0  0  0  0  0  0  0  0  0  0  0
   53.0718  157.1990   -5.2129 H   0  0  0  0  0  0  0  0  0  0  0  0
   53.6532  155.6069   -5.6022 H   0  0  0  0  0  0  0  0  0  0  0  0
   55.1269  155.6595   -3.5338 H   0  0  0  0  0  0  0  0  0  0  0  0
   54.4617  157.2689   -3.1518 H   0  0  0  0  0  0  0  0  0  0  0  0
   54.7189  157.6625   -6.8158 H   0  0  0  0  0  0  0  0  0  0  0  0
   55.0477  158.8354   -4.5586 H   0  0  0  0  0  0  0  0  0  0  0  0
   56.5909  158.6270   -5.3515 H   0  0  0  0  0  0  0  0  0  0  0  0
   53.3633  155.5710   -2.1203 H   0  0  0  0  0  0  0  0  0  0  0  0
  1  2  2  0  0  0  0
  1  3  1  0  0  0  0
  2  4  1  0  0  0  0
  3  5  2  0  0  0  0
  3 10  1  0  0  0  0
  4  6  1  0  0  0  0
  4 11  2  0  0  0  0
  5  7  1  0  0  0  0
  5 11  1  0  0  0  0
  8  9  1  0  0  0  0
  8 10  1  0  0  0  0
  9 13  1  0  0  0  0
 10 12  1  0  0  0  0
  1 14  1  0  0  0  0
  2 15  1  0  0  0  0
  6 16  1  0  0  0  0
  6 17  1  0  0  0  0
  6 18  1  0  0  0  0
  7 19  1  0  0  0  0
  7 20  1  0  0  0  0
  7 21  1  0  0  0  0
  8 22  1  0  0  0  0
  8 23  1  0  0  0  0
  9 24  1  0  0  0  0
  9 25  1  0  0  0  0
 10 26  1  0  0  0  0
 12 27  1  0  0  0  0
 12 28  1  0  0  0  0
 13 29  1  0  0  0  0
M  END
> <FRED Chemgauss4 score>
-6.316544

$$$$
C33636969	P49840826
  -OEChem-05122015083D

 19 19  0     1  0  0  0  0  0999 V2000
   54.9969  156.6011   -2.6715 C   0  0  0  0  0  0  0  0  0  0  0  0
   54.9908  158.7882   -3.0461 C   0  0  0  0  0  0  0  0  0  0  0  0
   55.8594  156.6033   -3.9288 C   0  0  1  0  0  0  0  0  0  0  0  0
   55.2466  155.7503   -5.0276 C   0  0  0  0  0  0  0  0  0  0  0  0
   53.8864  156.2858   -5.4455 C   0  0  0  0  0  0  0  0  0  0  0  0
   54.5862  157.8544   -2.2551 N   0  0  0  0  0  0  0  0  0  0  0  0
   54.7404  160.0712   -2.8871 N   0  5  0  0  0  0  0  0  0  0  0  0
   53.3125  155.3965   -6.4837 N   0  3  0  0  0  0  0  0  0  0  0  0
   54.7080  155.5584   -2.0909 O   0  0  0  0  0  0  0  0  0  0  0  0
   55.9345  158.3486   -4.4272 S   0  0  0  0  0  0  0  0  0  0  0  0
   56.8651  156.2608   -3.6667 H   0  0  0  0  0  0  0  0  0  0  0  0
   55.1516  154.7180   -4.6703 H   0  0  0  0  0  0  0  0  0  0  0  0
   55.9252  155.7317   -5.8887 H   0  0  0  0  0  0  0  0  0  0  0  0
   53.1776  156.3000   -4.6125 H   0  0  0  0  0  0  0  0  0  0  0  0
   53.9565  157.2845   -5.8865 H   0  0  0  0  0  0  0  0  0  0  0  0
   55.0205  160.5743   -3.7358 H   0  0  0  0  0  0  0  0  0  0  0  0
   53.1570  154.4522   -6.1141 H   0  0  0  0  0  0  0  0  0  0  0  0
   53.9420  155.3196   -7.2903 H   0  0  0  0  0  0  0  0  0  0  0  0
   52.4122  155.7561   -6.8194 H   0  0  0  0  0  0  0  0  0  0  0  0
  1  3  1  0  0  0  0
  1  6  1  0  0  0  0
  1  9  2  0  0  0  0
  2  6  2  0  0  0  0
  2  7  1  0  0  0  0
  2 10  1  0  0  0  0
  3  4  1  0  0  0  0
  3 10  1  0  0  0  0
  4  5  1  0  0  0  0
  5  8  1  0  0  0  0
  3 11  1  0  0  0  0
  4 12  1  0  0  0  0
  4 13  1  0  0  0  0
  5 14  1  0  0  0  0
  5 15  1  0  0  0  0
  7 16  1  0  0  0  0
  8 17  1  0  0  0  0
  8 18  1  0  0  0  0
  8 19  1  0  0  0  0
M  CHG  2   7  -1   8   1
M  END
> <FRED Chemgauss4 score>
-6.315816

$$$$
C85253958	P133399080
  -OEChem-05122015083D

 29 28  0     1  0  0  0  0  0999 V2000
   55.5247  153.2429   -6.5637 C   0  0  0  0  0  0  0  0  0  0  0  0
   54.1306  152.2168   -8.3434 C   0  0  0  0  0  0  0  0  0  0  0  0
   54.6121  157.2594   -3.2938 C   0  0  0  0  0  0  0  0  0  0  0  0
   56.1133  154.5957   -6.2184 C   0  0  0  0  0  0  0  0  0  0  0  0
   55.2025  154.9417   -4.0248 C   0  0  0  0  0  0  0  0  0  0  0  0
   52.7593  155.5677   -3.5212 C   0  0  0  0  0  0  0  0  0  0  0  0
   54.2385  155.7778   -3.1644 C   0  0  2  0  0  0  0  0  0  0  0  0
   53.5182  152.5782   -9.5310 N   0  0  0  0  0  0  0  0  0  0  0  0
   54.8106  153.2926   -7.7639 N   0  0  0  0  0  0  0  0  0  0  0  0
   55.1529  155.3448   -5.4123 N   0  0  0  0  0  0  0  0  0  0  0  0
   55.6498  152.2456   -5.8577 O   0  0  0  0  0  0  0  0  0  0  0  0
   54.0677  151.0808   -7.8771 O   0  0  0  0  0  0  0  0  0  0  0  0
   52.5006  155.9505   -4.8629 O   0  0  0  0  0  0  0  0  0  0  0  0
   54.4207  155.4282   -1.7893 O   0  0  0  0  0  0  0  0  0  0  0  0
   53.9424  157.8840   -2.6912 H   0  0  0  0  0  0  0  0  0  0  0  0
   55.6427  157.4511   -2.9780 H   0  0  0  0  0  0  0  0  0  0  0  0
   54.4995  157.6002   -4.3296 H   0  0  0  0  0  0  0  0  0  0  0  0
   57.0394  154.4599   -5.6509 H   0  0  0  0  0  0  0  0  0  0  0  0
   56.3388  155.1337   -7.1444 H   0  0  0  0  0  0  0  0  0  0  0  0
   54.9649  153.8746   -3.9566 H   0  0  0  0  0  0  0  0  0  0  0  0
   56.2321  155.0761   -3.6741 H   0  0  0  0  0  0  0  0  0  0  0  0
   52.1060  156.1441   -2.8566 H   0  0  0  0  0  0  0  0  0  0  0  0
   52.4813  154.5147   -3.3952 H   0  0  0  0  0  0  0  0  0  0  0  0
   53.6075  153.5331   -9.8620 H   0  0  0  0  0  0  0  0  0  0  0  0
   52.9825  151.9137  -10.0790 H   0  0  0  0  0  0  0  0  0  0  0  0
   54.7832  154.1822   -8.2551 H   0  0  0  0  0  0  0  0  0  0  0  0
   54.2142  155.1838   -5.7865 H   0  0  0  0  0  0  0  0  0  0  0  0
   51.5553  155.7943   -5.0238 H   0  0  0  0  0  0  0  0  0  0  0  0
   55.3542  155.5909   -1.5899 H   0  0  0  0  0  0  0  0  0  0  0  0
  1  4  1  0  0  0  0
  1  9  1  0  0  0  0
  1 11  2  0  0  0  0
  2  8  1  0  0  0  0
  2  9  1  0  0  0  0
  2 12  2  0  0  0  0
  3  7  1  0  0  0  0
  4 10  1  0  0  0  0
  5  7  1  0  0  0  0
  5 10  1  0  0  0  0
  6  7  1  0  0  0  0
  6 13  1  0  0  0  0
  7 14  1  0  0  0  0
  3 15  1  0  0  0  0
  3 16  1  0  0  0  0
  3 17  1  0  0  0  0
  4 18  1  0  0  0  0
  4 19  1  0  0  0  0
  5 20  1  0  0  0  0
  5 21  1  0  0  0  0
  6 22  1  0  0  0  0
  6 23  1  0  0  0  0
  8 24  1  0  0  0  0
  8 25  1  0  0  0  0
  9 26  1  0  0  0  0
 10 27  1  0  0  0  0
 13 28  1  0  0  0  0
 14 29  1  0  0  0  0
M  END
> <FRED Chemgauss4 score>
-6.314685

$$$$
C37191777	P55304598
  -OEChem-05122015083D

 32 34  0     0  0  0  0  0  0999 V2000
   59.5465  161.2535   -6.1011 C   0  0  0  0  0  0  0  0  0  0  0  0
   58.5821  160.7116   -5.2637 C   0  0  0  0  0  0  0  0  0  0  0  0
   58.8558  161.3367   -1.1297 C   0  0  0  0  0  0  0  0  0  0  0  0
   59.8106  161.8689   -1.9996 C   0  0  0  0  0  0  0  0  0  0  0  0
   55.3465  157.3112   -4.5120 C   0  0  0  0  0  0  0  0  0  0  0  0
   56.1577  157.4004   -3.3863 C   0  0  0  0  0  0  0  0  0  0  0  0
   57.6979  160.3756   -3.0038 C   0  0  0  0  0  0  0  0  0  0  0  0
   60.5624  161.9823   -5.5166 C   0  0  0  0  0  0  0  0  0  0  0  0
   53.6775  158.5371   -3.3424 C   0  0  0  0  0  0  0  0  0  0  0  0
   58.6585  160.9110   -3.8786 C   0  0  0  0  0  0  0  0  0  0  0  0
   57.7980  160.5890   -1.6320 C   0  0  0  0  0  0  0  0  0  0  0  0
   59.7353  161.6710   -3.3756 C   0  0  0  0  0  0  0  0  0  0  0  0
   54.0813  157.8878   -4.4978 C   0  0  0  0  0  0  0  0  0  0  0  0
   55.6610  158.0717   -2.2807 C   0  0  0  0  0  0  0  0  0  0  0  0
   56.7763  160.0199   -0.7078 C   0  0  0  0  0  0  0  0  0  0  0  0
   60.6727  162.1981   -4.1858 N   0  0  0  0  0  0  0  0  0  0  0  0
   54.4374  158.6443   -2.2295 N   0  0  0  0  0  0  0  0  0  0  0  0
   53.2399  157.8142   -5.6197 N   0  0  0  0  0  0  0  0  0  0  0  0
   56.6574  158.2087   -0.8294 S   0  0  0  0  0  0  0  0  0  0  0  0
   59.5036  161.1094   -7.1741 H   0  0  0  0  0  0  0  0  0  0  0  0
   57.7700  160.1327   -5.6977 H   0  0  0  0  0  0  0  0  0  0  0  0
   58.9499  161.5131   -0.0614 H   0  0  0  0  0  0  0  0  0  0  0  0
   60.6299  162.4506   -1.5808 H   0  0  0  0  0  0  0  0  0  0  0  0
   55.7099  156.7919   -5.3948 H   0  0  0  0  0  0  0  0  0  0  0  0
   57.1454  156.9507   -3.3940 H   0  0  0  0  0  0  0  0  0  0  0  0
   56.8679  159.7906   -3.3960 H   0  0  0  0  0  0  0  0  0  0  0  0
   61.3449  162.4294   -6.1209 H   0  0  0  0  0  0  0  0  0  0  0  0
   52.7006  159.0059   -3.2708 H   0  0  0  0  0  0  0  0  0  0  0  0
   57.0026  160.2815    0.3367 H   0  0  0  0  0  0  0  0  0  0  0  0
   55.7827  160.4438   -0.9165 H   0  0  0  0  0  0  0  0  0  0  0  0
   53.5737  157.3799   -6.4599 H   0  0  0  0  0  0  0  0  0  0  0  0
   52.3510  158.2784   -5.6014 H   0  0  0  0  0  0  0  0  0  0  0  0
  1  2  1  0  0  0  0
  1  8  2  0  0  0  0
  2 10  2  0  0  0  0
  3  4  2  0  0  0  0
  3 11  1  0  0  0  0
  4 12  1  0  0  0  0
  5  6  2  0  0  0  0
  5 13  1  0  0  0  0
  6 14  1  0  0  0  0
  7 10  1  0  0  0  0
  7 11  2  0  0  0  0
  8 16  1  0  0  0  0
  9 13  2  0  0  0  0
  9 17  1  0  0  0  0
 10 12  1  0  0  0  0
 11 15  1  0  0  0  0
 12 16  2  0  0  0  0
 13 18  1  0  0  0  0
 14 17  2  0  0  0  0
 14 19  1  0  0  0  0
 15 19  1  0  0  0  0
  1 20  1  0  0  0  0
  2 21  1  0  0  0  0
  3 22  1  0  0  0  0
  4 23  1  0  0  0  0
  5 24  1  0  0  0  0
  6 25  1  0  0  0  0
  7 26  1  0  0  0  0
  8 27  1  0  0  0  0
  9 28  1  0  0  0  0
 15 29  1  0  0  0  0
 15 30  1  0  0  0  0
 18 31  1  0  0  0  0
 18 32  1  0  0  0  0
M  END
> <FRED Chemgauss4 score>
-6.309800

$$$$
C82598966	P129091305
  -OEChem-05122015083D

 29 29  0     1  0  0  0  0  0999 V2000
   57.4113  156.9520   -6.0896 C   0  0  0  0  0  0  0  0  0  0  0  0
   57.8751  155.7643   -6.5016 C   0  0  0  0  0  0  0  0  0  0  0  0
   55.9588  157.1198   -5.8596 C   0  0  0  0  0  0  0  0  0  0  0  0
   55.8094  154.7981   -6.5336 C   0  0  0  0  0  0  0  0  0  0  0  0
   59.3406  155.5526   -6.7470 C   0  0  0  0  0  0  0  0  0  0  0  0
   54.9323  153.5944   -6.7841 C   0  0  0  0  0  0  0  0  0  0  0  0
   53.7512  156.0098   -5.9107 C   0  0  0  0  0  0  0  0  0  0  0  0
   53.5021  156.2390   -3.3852 C   0  0  0  0  0  0  0  0  0  0  0  0
   53.3089  155.3418   -4.6080 C   0  0  1  0  0  0  0  0  0  0  0  0
   57.0852  154.6664   -6.7315 N   0  0  0  0  0  0  0  0  0  0  0  0
   55.1993  155.9742   -6.1051 N   0  0  0  0  0  0  0  0  0  0  0  0
   53.0605  155.5506   -2.1922 N   0  0  0  0  0  0  0  0  0  0  0  0
   55.5334  158.2096   -5.4839 O   0  0  0  0  0  0  0  0  0  0  0  0
   51.9299  154.9852   -4.7040 O   0  0  0  0  0  0  0  0  0  0  0  0
   58.0565  157.8051   -5.9152 H   0  0  0  0  0  0  0  0  0  0  0  0
   59.8153  155.2105   -5.8306 H   0  0  0  0  0  0  0  0  0  0  0  0
   59.7936  156.4885   -7.0660 H   0  0  0  0  0  0  0  0  0  0  0  0
   59.4729  154.8070   -7.5277 H   0  0  0  0  0  0  0  0  0  0  0  0
   54.8488  153.0221   -5.8671 H   0  0  0  0  0  0  0  0  0  0  0  0
   55.3803  152.9871   -7.5630 H   0  0  0  0  0  0  0  0  0  0  0  0
   53.9524  153.9323   -7.1032 H   0  0  0  0  0  0  0  0  0  0  0  0
   53.2925  155.5196   -6.7752 H   0  0  0  0  0  0  0  0  0  0  0  0
   53.4633  157.0659   -5.9170 H   0  0  0  0  0  0  0  0  0  0  0  0
   52.9243  157.1643   -3.4795 H   0  0  0  0  0  0  0  0  0  0  0  0
   54.5585  156.5000   -3.2647 H   0  0  0  0  0  0  0  0  0  0  0  0
   53.8759  154.4117   -4.4795 H   0  0  0  0  0  0  0  0  0  0  0  0
   52.2424  154.9716   -2.2435 H   0  0  0  0  0  0  0  0  0  0  0  0
   53.4491  155.8206   -1.3071 H   0  0  0  0  0  0  0  0  0  0  0  0
   51.8569  154.3725   -5.4513 H   0  0  0  0  0  0  0  0  0  0  0  0
  1  2  2  0  0  0  0
  1  3  1  0  0  0  0
  2  5  1  0  0  0  0
  2 10  1  0  0  0  0
  3 11  1  0  0  0  0
  3 13  2  0  0  0  0
  4  6  1  0  0  0  0
  4 10  2  0  0  0  0
  4 11  1  0  0  0  0
  7  9  1  0  0  0  0
  7 11  1  0  0  0  0
  8  9  1  0  0  0  0
  8 12  1  0  0  0  0
  9 14  1  0  0  0  0
  1 15  1  0  0  0  0
  5 16  1  0  0  0  0
  5 17  1  0  0  0  0
  5 18  1  0  0  0  0
  6 19  1  0  0  0  0
  6 20  1  0  0  0  0
  6 21  1  0  0  0  0
  7 22  1  0  0  0  0
  7 23  1  0  0  0  0
  8 24  1  0  0  0  0
  8 25  1  0  0  0  0
  9 26  1  0  0  0  0
 12 27  1  0  0  0  0
 12 28  1  0  0  0  0
 14 29  1  0  0  0  0
M  END
> <FRED Chemgauss4 score>
-6.303493

$$$$
C87588301	P137003098
  -OEChem-05122015083D

 27 28  0     1  0  0  0  0  0999 V2000
   57.2311  158.7354   -3.5679 C   0  0  0  0  0  0  0  0  0  0  0  0
   56.6329  160.5884   -4.4274 C   0  0  0  0  0  0  0  0  0  0  0  0
   56.8996  158.4462   -4.8706 C   0  0  0  0  0  0  0  0  0  0  0  0
   55.2469  155.9656   -4.1232 C   0  0  0  0  0  0  0  0  0  0  0  0
   53.1180  155.7160   -3.7849 C   0  0  0  0  0  0  0  0  0  0  0  0
   56.9049  157.1585   -5.6625 C   0  0  0  0  0  0  0  0  0  0  0  0
   56.6062  155.9122   -4.7995 C   0  0  2  0  0  0  0  0  0  0  0  0
   57.0627  160.0705   -3.2983 N   0  0  0  0  0  0  0  0  0  0  0  0
   54.9744  156.4642   -2.9385 N   0  0  0  0  0  0  0  0  0  0  0  0
   53.6199  156.3055   -2.7233 N   0  0  0  0  0  0  0  0  0  0  0  0
   56.5178  159.6430   -5.4083 N   0  0  0  0  0  0  0  0  0  0  0  0
   54.1071  155.4835   -4.6917 N   0  0  0  0  0  0  0  0  0  0  0  0
   51.8418  155.3511   -4.0447 N   0  0  0  0  0  0  0  0  0  0  0  0
   56.7359  154.6970   -5.6150 N   0  0  0  0  0  0  0  0  0  0  0  0
   53.9876  154.8702   -5.9602 N   0  0  0  0  0  0  0  0  0  0  0  0
   57.5828  158.0517   -2.8084 H   0  0  0  0  0  0  0  0  0  0  0  0
   56.3895  161.6272   -4.5998 H   0  0  0  0  0  0  0  0  0  0  0  0
   57.8952  157.0599   -6.1289 H   0  0  0  0  0  0  0  0  0  0  0  0
   56.1971  157.2368   -6.4983 H   0  0  0  0  0  0  0  0  0  0  0  0
   57.3761  155.8390   -4.0207 H   0  0  0  0  0  0  0  0  0  0  0  0
   56.2079  159.8036   -6.3578 H   0  0  0  0  0  0  0  0  0  0  0  0
   51.0878  155.4741   -3.3547 H   0  0  0  0  0  0  0  0  0  0  0  0
   51.5825  154.8484   -4.9048 H   0  0  0  0  0  0  0  0  0  0  0  0
   56.2869  153.8738   -5.2888 H   0  0  0  0  0  0  0  0  0  0  0  0
   57.4215  154.6959   -6.3332 H   0  0  0  0  0  0  0  0  0  0  0  0
   54.6640  155.2232   -6.6450 H   0  0  0  0  0  0  0  0  0  0  0  0
   53.0720  155.0282   -6.3940 H   0  0  0  0  0  0  0  0  0  0  0  0
  1  3  2  0  0  0  0
  1  8  1  0  0  0  0
  2  8  2  0  0  0  0
  2 11  1  0  0  0  0
  3  6  1  0  0  0  0
  3 11  1  0  0  0  0
  4  7  1  0  0  0  0
  4  9  2  0  0  0  0
  4 12  1  0  0  0  0
  5 10  2  0  0  0  0
  5 12  1  0  0  0  0
  5 13  1  0  0  0  0
  6  7  1  0  0  0  0
  7 14  1  0  0  0  0
  9 10  1  0  0  0  0
 12 15  1  0  0  0  0
  1 16  1  0  0  0  0
  2 17  1  0  0  0  0
  6 18  1  0  0  0  0
  6 19  1  0  0  0  0
  7 20  1  0  0  0  0
 11 21  1  0  0  0  0
 13 22  1  0  0  0  0
 13 23  1  0  0  0  0
 14 24  1  0  0  0  0
 14 25  1  0  0  0  0
 15 26  1  0  0  0  0
 15 27  1  0  0  0  0
M  END
> <FRED Chemgauss4 score>
-6.301641

$$$$
C48630893	P72706708
  -OEChem-05122015083D

 28 28  0     1  0  0  0  0  0999 V2000
   54.9286  157.6747   -2.8606 C   0  0  0  0  0  0  0  0  0  0  0  0
   54.2597  157.0578   -4.7392 C   0  0  0  0  0  0  0  0  0  0  0  0
   55.8163  159.6018   -1.5246 C   0  0  0  0  0  0  0  0  0  0  0  0
   56.5795  156.7854   -6.7325 C   0  0  0  0  0  0  0  0  0  0  0  0
   55.6261  154.6050   -5.9830 C   0  0  0  0  0  0  0  0  0  0  0  0
   55.8415  158.0892   -1.7889 C   0  0  0  0  0  0  0  0  0  0  0  0
   54.0900  156.6239   -6.1842 C   0  0  2  0  0  0  0  0  0  0  0  0
   55.3305  155.8951   -6.7610 C   0  0  0  0  0  0  0  0  0  0  0  0
   55.3722  157.3678   -4.1150 N   0  0  0  0  0  0  0  0  0  0  0  0
   53.6115  157.5739   -2.6693 N   0  0  0  0  0  0  0  0  0  0  0  0
   53.2075  157.1778   -3.8859 N   0  0  0  0  0  0  0  0  0  0  0  0
   53.7430  157.7979   -6.9560 N   0  0  0  0  0  0  0  0  0  0  0  0
   56.0384  160.1572   -2.4422 H   0  0  0  0  0  0  0  0  0  0  0  0
   56.5520  159.8900   -0.7673 H   0  0  0  0  0  0  0  0  0  0  0  0
   54.8273  159.9151   -1.1733 H   0  0  0  0  0  0  0  0  0  0  0  0
   56.8171  157.1015   -5.7109 H   0  0  0  0  0  0  0  0  0  0  0  0
   57.4478  156.2484   -7.1297 H   0  0  0  0  0  0  0  0  0  0  0  0
   56.4478  157.6824   -7.3454 H   0  0  0  0  0  0  0  0  0  0  0  0
   55.8257  154.8160   -4.9268 H   0  0  0  0  0  0  0  0  0  0  0  0
   56.5025  154.0944   -6.3967 H   0  0  0  0  0  0  0  0  0  0  0  0
   54.7867  153.9048   -6.0381 H   0  0  0  0  0  0  0  0  0  0  0  0
   55.6118  157.5710   -0.8341 H   0  0  0  0  0  0  0  0  0  0  0  0
   56.8899  157.7979   -2.0108 H   0  0  0  0  0  0  0  0  0  0  0  0
   53.2231  155.9558   -6.2704 H   0  0  0  0  0  0  0  0  0  0  0  0
   55.1413  155.6102   -7.8042 H   0  0  0  0  0  0  0  0  0  0  0  0
   52.2212  157.0142   -4.0510 H   0  0  0  0  0  0  0  0  0  0  0  0
   53.1851  158.5112   -6.5243 H   0  0  0  0  0  0  0  0  0  0  0  0
   53.8882  157.7826   -7.9486 H   0  0  0  0  0  0  0  0  0  0  0  0
  1  6  1  0  0  0  0
  1  9  1  0  0  0  0
  1 10  2  0  0  0  0
  2  7  1  0  0  0  0
  2  9  2  0  0  0  0
  2 11  1  0  0  0  0
  3  6  1  0  0  0  0
  4  8  1  0  0  0  0
  5  8  1  0  0  0  0
  7  8  1  0  0  0  0
  7 12  1  0  0  0  0
 10 11  1  0  0  0  0
  3 13  1  0  0  0  0
  3 14  1  0  0  0  0
  3 15  1  0  0  0  0
  4 16  1  0  0  0  0
  4 17  1  0  0  0  0
  4 18  1  0  0  0  0
  5 19  1  0  0  0  0
  5 20  1  0  0  0  0
  5 21  1  0  0  0  0
  6 22  1  0  0  0  0
  6 23  1  0  0  0  0
  7 24  1  0  0  0  0
  8 25  1  0  0  0  0
 11 26  1  0  0  0  0
 12 27  1  0  0  0  0
 12 28  1  0  0  0  0
M  END
> <FRED Chemgauss4 score>
-6.297153

$$$$
C35137616	P88193130
  -OEChem-05122015083D

 24 24  0     0  0  0  0  0  0999 V2000
   55.7211  156.1163   -4.8381 C   0  0  0  0  0  0  0  0  0  0  0  0
   53.5967  156.0784   -3.0830 C   0  0  0  0  0  0  0  0  0  0  0  0
   56.8939  156.2440   -5.7432 C   0  0  0  0  0  0  0  0  0  0  0  0
   58.5220  153.4655   -7.6280 C   0  0  0  0  0  0  0  0  0  0  0  0
   55.8595  155.2175   -3.6514 C   0  0  0  0  0  0  0  0  0  0  0  0
   54.9614  155.7275   -2.5492 C   0  0  0  0  0  0  0  0  0  0  0  0
   58.3729  154.9086   -7.2048 C   0  0  0  0  0  0  0  0  0  0  0  0
   54.6407  156.7382   -5.1759 N   0  0  0  0  0  0  0  0  0  0  0  0
   53.5692  156.6035   -4.3563 N   0  0  0  0  0  0  0  0  0  0  0  0
   57.3899  152.9818   -8.2479 N   0  0  0  0  0  0  0  0  0  0  0  0
   57.2608  155.0363   -6.2905 N   0  0  0  0  0  0  0  0  0  0  0  0
   52.5896  155.9650   -2.3842 O   0  0  0  0  0  0  0  0  0  0  0  0
   57.4105  157.3338   -5.9257 O   0  0  0  0  0  0  0  0  0  0  0  0
   59.5499  152.8103   -7.4791 O   0  0  0  0  0  0  0  0  0  0  0  0
   55.5636  154.2087   -3.9604 H   0  0  0  0  0  0  0  0  0  0  0  0
   56.8991  155.1824   -3.3120 H   0  0  0  0  0  0  0  0  0  0  0  0
   55.3816  156.6355   -2.1007 H   0  0  0  0  0  0  0  0  0  0  0  0
   54.8613  154.9722   -1.7630 H   0  0  0  0  0  0  0  0  0  0  0  0
   58.1770  155.5504   -8.0681 H   0  0  0  0  0  0  0  0  0  0  0  0
   59.2831  155.2362   -6.6951 H   0  0  0  0  0  0  0  0  0  0  0  0
   52.6707  156.9159   -4.7109 H   0  0  0  0  0  0  0  0  0  0  0  0
   56.5755  153.5722   -8.3804 H   0  0  0  0  0  0  0  0  0  0  0  0
   57.3242  152.0299   -8.5942 H   0  0  0  0  0  0  0  0  0  0  0  0
   56.7315  154.2050   -6.0433 H   0  0  0  0  0  0  0  0  0  0  0  0
  1  3  1  0  0  0  0
  1  5  1  0  0  0  0
  1  8  2  0  0  0  0
  2  6  1  0  0  0  0
  2  9  1  0  0  0  0
  2 12  2  0  0  0  0
  3 11  1  0  0  0  0
  3 13  2  0  0  0  0
  4  7  1  0  0  0  0
  4 10  1  0  0  0  0
  4 14  2  0  0  0  0
  5  6  1  0  0  0  0
  7 11  1  0  0  0  0
  8  9  1  0  0  0  0
  5 15  1  0  0  0  0
  5 16  1  0  0  0  0
  6 17  1  0  0  0  0
  6 18  1  0  0  0  0
  7 19  1  0  0  0  0
  7 20  1  0  0  0  0
  9 21  1  0  0  0  0
 10 22  1  0  0  0  0
 10 23  1  0  0  0  0
 11 24  1  0  0  0  0
M  END
> <FRED Chemgauss4 score>
-6.296182

$$$$
C54503944	P82019601
  -OEChem-05122015083D

 27 29  0     1  0  0  0  0  0999 V2000
   55.4977  158.0356   -2.4204 C   0  0  0  0  0  0  0  0  0  0  0  0
   54.9618  157.4675   -4.3561 C   0  0  0  0  0  0  0  0  0  0  0  0
   56.0509  159.7189   -0.4910 C   0  0  0  0  0  0  0  0  0  0  0  0
   57.2693  159.6458   -1.3571 C   0  0  0  0  0  0  0  0  0  0  0  0
   54.5140  154.6173   -5.1007 C   0  0  0  0  0  0  0  0  0  0  0  0
   55.9996  154.8117   -5.2222 C   0  0  0  0  0  0  0  0  0  0  0  0
   56.3559  158.4474   -1.2477 C   0  0  0  0  0  0  0  0  0  0  0  0
   55.0634  155.6192   -6.0782 C   0  0  0  0  0  0  0  0  0  0  0  0
   54.8923  157.0781   -5.8325 C   0  0  2  0  0  0  0  0  0  0  0  0
   56.0255  157.7819   -3.6539 N   0  0  0  0  0  0  0  0  0  0  0  0
   54.1743  157.8980   -2.3152 N   0  0  0  0  0  0  0  0  0  0  0  0
   53.8562  157.5342   -3.5668 N   0  0  0  0  0  0  0  0  0  0  0  0
   55.8447  157.8764   -6.5966 N   0  0  0  0  0  0  0  0  0  0  0  0
   56.1949  159.7157    0.5831 H   0  0  0  0  0  0  0  0  0  0  0  0
   55.2294  160.3401   -0.8279 H   0  0  0  0  0  0  0  0  0  0  0  0
   57.2675  160.2178   -2.2775 H   0  0  0  0  0  0  0  0  0  0  0  0
   58.2350  159.5931   -0.8680 H   0  0  0  0  0  0  0  0  0  0  0  0
   54.0941  153.6952   -5.4833 H   0  0  0  0  0  0  0  0  0  0  0  0
   54.0271  154.9966   -4.2106 H   0  0  0  0  0  0  0  0  0  0  0  0
   56.5088  155.3210   -4.4133 H   0  0  0  0  0  0  0  0  0  0  0  0
   56.5744  154.0198   -5.6863 H   0  0  0  0  0  0  0  0  0  0  0  0
   56.7391  157.6096   -0.6393 H   0  0  0  0  0  0  0  0  0  0  0  0
   55.0093  155.3751   -7.1323 H   0  0  0  0  0  0  0  0  0  0  0  0
   53.9047  157.4057   -6.2165 H   0  0  0  0  0  0  0  0  0  0  0  0
   52.8867  157.3527   -3.7987 H   0  0  0  0  0  0  0  0  0  0  0  0
   56.0429  158.8019   -6.2811 H   0  0  0  0  0  0  0  0  0  0  0  0
   56.1054  157.5558   -7.5047 H   0  0  0  0  0  0  0  0  0  0  0  0
  1  7  1  0  0  0  0
  1 10  1  0  0  0  0
  1 11  2  0  0  0  0
  2  9  1  0  0  0  0
  2 10  2  0  0  0  0
  2 12  1  0  0  0  0
  3  4  1  0  0  0  0
  3  7  1  0  0  0  0
  4  7  1  0  0  0  0
  5  6  1  0  0  0  0
  5  8  1  0  0  0  0
  6  8  1  0  0  0  0
  8  9  1  0  0  0  0
  9 13  1  0  0  0  0
 11 12  1  0  0  0  0
  3 14  1  0  0  0  0
  3 15  1  0  0  0  0
  4 16  1  0  0  0  0
  4 17  1  0  0  0  0
  5 18  1  0  0  0  0
  5 19  1  0  0  0  0
  6 20  1  0  0  0  0
  6 21  1  0  0  0  0
  7 22  1  0  0  0  0
  8 23  1  0  0  0  0
  9 24  1  0  0  0  0
 12 25  1  0  0  0  0
 13 26  1  0  0  0  0
 13 27  1  0  0  0  0
M  END
> <FRED Chemgauss4 score>
-6.294783

$$$$
C42443275	P64209734
  -OEChem-05122015083D

 37 38  0     1  0  0  0  0  0999 V2000
   58.0594  158.5150   -5.4033 C   0  0  0  0  0  0  0  0  0  0  0  0
   57.7664  156.3668   -5.0367 C   0  0  0  0  0  0  0  0  0  0  0  0
   58.7192  157.2719   -5.4362 C   0  0  0  0  0  0  0  0  0  0  0  0
   57.9464  159.2639   -1.3222 C   0  0  0  0  0  0  0  0  0  0  0  0
   56.4266  159.0966   -1.2265 C   0  0  0  0  0  0  0  0  0  0  0  0
   55.2133  160.5717   -2.7394 C   0  0  0  0  0  0  0  0  0  0  0  0
   58.4946  160.4379   -2.1255 C   0  0  0  0  0  0  0  0  0  0  0  0
   56.2451  161.6155   -3.1707 C   0  0  0  0  0  0  0  0  0  0  0  0
   55.3455  156.5726   -4.3506 C   0  0  0  0  0  0  0  0  0  0  0  0
   54.6254  158.2535   -2.5736 C   0  0  0  0  0  0  0  0  0  0  0  0
   55.1015  156.8247   -2.8575 C   0  0  1  0  0  0  0  0  0  0  0  0
   56.7859  158.4127   -5.0139 N   0  0  0  0  0  0  0  0  0  0  0  0
   56.6377  157.0945   -4.7984 N   0  0  0  0  0  0  0  0  0  0  0  0
   55.7403  159.2087   -2.5246 N   0  0  2  0  0  0  0  0  0  0  0  0
   59.9958  157.0190   -5.7807 N   0  0  0  0  0  0  0  0  0  0  0  0
   54.0830  155.9254   -2.4132 O   0  0  0  0  0  0  0  0  0  0  0  0
   57.5441  161.9712   -1.9512 S   0  0  0  0  0  0  0  0  0  0  0  0
   58.4503  159.4932   -5.6455 H   0  0  0  0  0  0  0  0  0  0  0  0
   57.7933  155.2934   -4.9051 H   0  0  0  0  0  0  0  0  0  0  0  0
   58.3336  159.3653   -0.2923 H   0  0  0  0  0  0  0  0  0  0  0  0
   58.3954  158.3247   -1.6953 H   0  0  0  0  0  0  0  0  0  0  0  0
   56.2605  158.0847   -0.8086 H   0  0  0  0  0  0  0  0  0  0  0  0
   55.9916  159.7776   -0.4687 H   0  0  0  0  0  0  0  0  0  0  0  0
   54.7308  160.9388   -1.8350 H   0  0  0  0  0  0  0  0  0  0  0  0
   54.4509  160.5146   -3.5152 H   0  0  0  0  0  0  0  0  0  0  0  0
   59.5359  160.6314   -1.8560 H   0  0  0  0  0  0  0  0  0  0  0  0
   58.4871  160.1711   -3.1855 H   0  0  0  0  0  0  0  0  0  0  0  0
   56.7416  161.2591   -4.0884 H   0  0  0  0  0  0  0  0  0  0  0  0
   55.7485  162.5581   -3.4563 H   0  0  0  0  0  0  0  0  0  0  0  0
   54.5713  157.0515   -4.9626 H   0  0  0  0  0  0  0  0  0  0  0  0
   55.3435  155.5032   -4.5904 H   0  0  0  0  0  0  0  0  0  0  0  0
   53.9149  158.5660   -3.3482 H   0  0  0  0  0  0  0  0  0  0  0  0
   54.0741  158.2829   -1.6264 H   0  0  0  0  0  0  0  0  0  0  0  0
   56.0063  156.6066   -2.2770 H   0  0  0  0  0  0  0  0  0  0  0  0
   60.6339  157.7585   -6.1161 H   0  0  0  0  0  0  0  0  0  0  0  0
   60.3775  156.0600   -5.8185 H   0  0  0  0  0  0  0  0  0  0  0  0
   54.4205  155.0318   -2.5735 H   0  0  0  0  0  0  0  0  0  0  0  0
  1  3  1  0  0  0  0
  1 12  2  0  0  0  0
  2  3  2  0  0  0  0
  2 13  1  0  0  0  0
  3 15  1  0  0  0  0
  4  5  1  0  0  0  0
  4  7  1  0  0  0  0
  5 14  1  0  0  0  0
  6  8  1  0  0  0  0
  6 14  1  0  0  0  0
  7 17  1  0  0  0  0
  8 17  1  0  0  0  0
  9 11  1  0  0  0  0
  9 13  1  0  0  0  0
 10 11  1  0  0  0  0
 10 14  1  0  0  0  0
 11 16  1  0  0  0  0
 12 13  1  0  0  0  0
  1 18  1  0  0  0  0
  2 19  1  0  0  0  0
  4 20  1  0  0  0  0
  4 21  1  0  0  0  0
  5 22  1  0  0  0  0
  5 23  1  0  0  0  0
  6 24  1  0  0  0  0
  6 25  1  0  0  0  0
  7 26  1  0  0  0  0
  7 27  1  0  0  0  0
  8 28  1  0  0  0  0
  8 29  1  0  0  0  0
  9 30  1  0  0  0  0
  9 31  1  0  0  0  0
 10 32  1  0  0  0  0
 10 33  1  0  0  0  0
 11 34  1  0  0  0  0
 15 35  1  0  0  0  0
 15 36  1  0  0  0  0
 16 37  1  0  0  0  0
M  END
> <FRED Chemgauss4 score>
-6.294396

$$$$
C92996988	P145595040
  -OEChem-05122015083D

 39 41  0     1  0  0  0  0  0999 V2000
   52.5857  155.2180   -3.7897 C   0  0  0  0  0  0  0  0  0  0  0  0
   54.5344  156.0567   -3.7569 C   0  0  0  0  0  0  0  0  0  0  0  0
   53.6972  157.0705   -4.1527 C   0  0  0  0  0  0  0  0  0  0  0  0
   55.7600  159.0856   -2.6936 C   0  0  0  0  0  0  0  0  0  0  0  0
   56.9069  162.8037   -2.0625 C   0  0  0  0  0  0  0  0  0  0  0  0
   55.9916  156.2320   -3.5782 C   0  0  0  0  0  0  0  0  0  0  0  0
   54.1135  158.4466   -4.4996 C   0  0  0  0  0  0  0  0  0  0  0  0
   55.9998  166.2143   -2.8661 C   0  0  0  0  0  0  0  0  0  0  0  0
   54.8381  165.6512   -3.6331 C   0  0  0  0  0  0  0  0  0  0  0  0
   55.6030  158.6355   -4.1162 C   0  0  2  0  0  0  0  0  0  0  0  0
   56.0077  164.7730   -3.2895 C   0  0  0  0  0  0  0  0  0  0  0  0
   56.5042  161.7964   -1.0005 C   0  0  0  0  0  0  0  0  0  0  0  0
   57.1900  160.4496   -1.1846 C   0  0  0  0  0  0  0  0  0  0  0  0
   53.8385  154.9023   -3.5254 N   0  0  0  0  0  0  0  0  0  0  0  0
   52.4492  156.5280   -4.1761 N   0  0  0  0  0  0  0  0  0  0  0  0
   56.4484  157.4352   -4.3113 N   0  0  0  0  0  0  0  0  0  0  0  0
   56.8538  159.9024   -2.4794 N   0  0  0  0  0  0  0  0  0  0  0  0
   55.8867  163.7071   -2.3217 N   0  0  0  0  0  0  0  0  0  0  0  0
   54.9482  158.7206   -1.8513 O   0  0  0  0  0  0  0  0  0  0  0  0
   58.0065  162.8008   -2.6091 O   0  0  0  0  0  0  0  0  0  0  0  0
   51.7364  154.5533   -3.7226 H   0  0  0  0  0  0  0  0  0  0  0  0
   56.2404  156.3438   -2.5164 H   0  0  0  0  0  0  0  0  0  0  0  0
   56.5268  155.3501   -3.9515 H   0  0  0  0  0  0  0  0  0  0  0  0
   53.9774  158.6377   -5.5750 H   0  0  0  0  0  0  0  0  0  0  0  0
   53.4741  159.1659   -3.9634 H   0  0  0  0  0  0  0  0  0  0  0  0
   56.6530  166.9082   -3.3808 H   0  0  0  0  0  0  0  0  0  0  0  0
   55.8531  166.4308   -1.8151 H   0  0  0  0  0  0  0  0  0  0  0  0
   53.9108  165.4894   -3.0974 H   0  0  0  0  0  0  0  0  0  0  0  0
   54.7138  165.9679   -4.6614 H   0  0  0  0  0  0  0  0  0  0  0  0
   56.0383  159.4634   -4.7475 H   0  0  0  0  0  0  0  0  0  0  0  0
   56.6737  164.5097   -4.1043 H   0  0  0  0  0  0  0  0  0  0  0  0
   56.7530  162.2135   -0.0167 H   0  0  0  0  0  0  0  0  0  0  0  0
   55.4147  161.6716   -1.0380 H   0  0  0  0  0  0  0  0  0  0  0  0
   56.8774  159.7486   -0.4031 H   0  0  0  0  0  0  0  0  0  0  0  0
   58.2774  160.5579   -1.1087 H   0  0  0  0  0  0  0  0  0  0  0  0
   51.5868  156.9946   -4.4261 H   0  0  0  0  0  0  0  0  0  0  0  0
   57.4083  157.6559   -4.0055 H   0  0  0  0  0  0  0  0  0  0  0  0
   57.4500  160.1291   -3.2697 H   0  0  0  0  0  0  0  0  0  0  0  0
   55.0152  163.6149   -1.8081 H   0  0  0  0  0  0  0  0  0  0  0  0
  1 14  2  0  0  0  0
  1 15  1  0  0  0  0
  2  3  2  0  0  0  0
  2  6  1  0  0  0  0
  2 14  1  0  0  0  0
  3  7  1  0  0  0  0
  3 15  1  0  0  0  0
  4 10  1  0  0  0  0
  4 17  1  0  0  0  0
  4 19  2  0  0  0  0
  5 12  1  0  0  0  0
  5 18  1  0  0  0  0
  5 20  2  0  0  0  0
  6 16  1  0  0  0  0
  7 10  1  0  0  0  0
  8  9  1  0  0  0  0
  8 11  1  0  0  0  0
  9 11  1  0  0  0  0
 10 16  1  0  0  0  0
 11 18  1  0  0  0  0
 12 13  1  0  0  0  0
 13 17  1  0  0  0  0
  1 21  1  0  0  0  0
  6 22  1  0  0  0  0
  6 23  1  0  0  0  0
  7 24  1  0  0  0  0
  7 25  1  0  0  0  0
  8 26  1  0  0  0  0
  8 27  1  0  0  0  0
  9 28  1  0  0  0  0
  9 29  1  0  0  0  0
 10 30  1  0  0  0  0
 11 31  1  0  0  0  0
 12 32  1  0  0  0  0
 12 33  1  0  0  0  0
 13 34  1  0  0  0  0
 13 35  1  0  0  0  0
 15 36  1  0  0  0  0
 16 37  1  0  0  0  0
 17 38  1  0  0  0  0
 18 39  1  0  0  0  0
M  END
> <FRED Chemgauss4 score>
-6.293909

$$$$
C40710779	P61812576
  -OEChem-05122015083D

 28 28  0     1  0  0  0  0  0999 V2000
   56.5754  153.6636   -6.6827 C   0  0  0  0  0  0  0  0  0  0  0  0
   55.0067  154.7820   -5.9293 C   0  0  0  0  0  0  0  0  0  0  0  0
   59.2568  155.0973   -6.9603 C   0  0  0  0  0  0  0  0  0  0  0  0
   57.6483  153.2103   -7.5748 C   0  0  0  0  0  0  0  0  0  0  0  0
   59.0565  153.5939   -7.0663 C   0  0  0  0  0  0  0  0  0  0  0  0
   53.1629  155.4341   -4.2875 C   0  0  0  0  0  0  0  0  0  0  0  0
   53.9293  155.8971   -3.0528 C   0  0  0  0  0  0  0  0  0  0  0  0
   53.8880  155.7499   -5.6056 C   0  0  2  0  0  0  0  0  0  0  0  0
   55.8052  154.7536   -6.9662 N   0  0  0  0  0  0  0  0  0  0  0  0
   56.2908  153.0325   -5.5396 N   0  0  0  0  0  0  0  0  0  0  0  0
   52.9409  155.8059   -6.6984 N   0  0  0  0  0  0  0  0  0  0  0  0
   55.2288  153.7891   -5.0286 O   0  0  0  0  0  0  0  0  0  0  0  0
   53.1861  155.5406   -1.8942 O   0  0  0  0  0  0  0  0  0  0  0  0
   59.0956  155.5836   -7.9277 H   0  0  0  0  0  0  0  0  0  0  0  0
   58.5636  155.5351   -6.2350 H   0  0  0  0  0  0  0  0  0  0  0  0
   60.2770  155.3218   -6.6335 H   0  0  0  0  0  0  0  0  0  0  0  0
   57.6249  152.1078   -7.7194 H   0  0  0  0  0  0  0  0  0  0  0  0
   57.5313  153.6216   -8.6015 H   0  0  0  0  0  0  0  0  0  0  0  0
   59.2252  153.1391   -6.0826 H   0  0  0  0  0  0  0  0  0  0  0  0
   59.8139  153.1777   -7.7417 H   0  0  0  0  0  0  0  0  0  0  0  0
   52.1773  155.9200   -4.2880 H   0  0  0  0  0  0  0  0  0  0  0  0
   52.9442  154.3616   -4.1999 H   0  0  0  0  0  0  0  0  0  0  0  0
   54.9111  155.4188   -2.9887 H   0  0  0  0  0  0  0  0  0  0  0  0
   54.0601  156.9838   -3.0601 H   0  0  0  0  0  0  0  0  0  0  0  0
   54.2951  156.7664   -5.5337 H   0  0  0  0  0  0  0  0  0  0  0  0
   53.2815  155.7096   -7.6371 H   0  0  0  0  0  0  0  0  0  0  0  0
   52.0123  156.1387   -6.5151 H   0  0  0  0  0  0  0  0  0  0  0  0
   53.6979  155.8475   -1.1285 H   0  0  0  0  0  0  0  0  0  0  0  0
  1  4  1  0  0  0  0
  1  9  1  0  0  0  0
  1 10  2  0  0  0  0
  2  8  1  0  0  0  0
  2  9  2  0  0  0  0
  2 12  1  0  0  0  0
  3  5  1  0  0  0  0
  4  5  1  0  0  0  0
  6  7  1  0  0  0  0
  6  8  1  0  0  0  0
  7 13  1  0  0  0  0
  8 11  1  0  0  0  0
 10 12  1  0  0  0  0
  3 14  1  0  0  0  0
  3 15  1  0  0  0  0
  3 16  1  0  0  0  0
  4 17  1  0  0  0  0
  4 18  1  0  0  0  0
  5 19  1  0  0  0  0
  5 20  1  0  0  0  0
  6 21  1  0  0  0  0
  6 22  1  0  0  0  0
  7 23  1  0  0  0  0
  7 24  1  0  0  0  0
  8 25  1  0  0  0  0
 11 26  1  0  0  0  0
 11 27  1  0  0  0  0
 13 28  1  0  0  0  0
M  END
> <FRED Chemgauss4 score>
-6.289102

$$$$
C87993543	P137628739
  -OEChem-05122015083D

 46 47  0     0  0  0  0  0  0999 V2000
   55.7947  155.8139   -4.6853 C   0  0  0  0  0  0  0  0  0  0  0  0
   56.6802  155.8241   -5.7437 C   0  0  0  0  0  0  0  0  0  0  0  0
   55.9363  156.8444   -3.7786 C   0  0  0  0  0  0  0  0  0  0  0  0
   57.6706  157.7150   -4.9623 C   0  0  0  0  0  0  0  0  0  0  0  0
   58.6438  159.7616   -3.9395 C   0  0  0  0  0  0  0  0  0  0  0  0
   58.5259  159.5079   -6.4574 C   0  0  0  0  0  0  0  0  0  0  0  0
   59.6492  160.9009   -4.1044 C   0  0  0  0  0  0  0  0  0  0  0  0
   59.5317  160.6478   -6.6164 C   0  0  0  0  0  0  0  0  0  0  0  0
   58.7124  158.7759   -5.1179 C   0  0  0  0  0  0  0  0  0  0  0  0
   59.4645  161.6315   -5.4409 C   0  0  0  0  0  0  0  0  0  0  0  0
   56.6041  154.7499   -6.7764 C   0  0  0  0  0  0  0  0  0  0  0  0
   60.3966  163.7305   -4.4348 C   0  0  0  0  0  0  0  0  0  0  0  0
   60.2799  163.4790   -6.9267 C   0  0  0  0  0  0  0  0  0  0  0  0
   61.9187  162.1177   -5.6048 C   0  0  0  0  0  0  0  0  0  0  0  0
   55.0223  156.9184   -2.6014 C   0  0  0  0  0  0  0  0  0  0  0  0
   60.5096  162.7341   -5.6010 C   0  0  0  0  0  0  0  0  0  0  0  0
   57.6342  156.7628   -5.9139 N   0  0  0  0  0  0  0  0  0  0  0  0
   56.8668  157.8154   -3.8865 N   0  0  0  0  0  0  0  0  0  0  0  0
   53.7067  157.3841   -2.9587 N   0  0  0  0  0  0  0  0  0  0  0  0
   55.0382  155.0466   -4.5734 H   0  0  0  0  0  0  0  0  0  0  0  0
   58.8411  159.2363   -2.9966 H   0  0  0  0  0  0  0  0  0  0  0  0
   57.6325  160.1817   -3.8560 H   0  0  0  0  0  0  0  0  0  0  0  0
   57.5073  159.9124   -6.5291 H   0  0  0  0  0  0  0  0  0  0  0  0
   58.6401  158.8031   -7.2905 H   0  0  0  0  0  0  0  0  0  0  0  0
   59.5329  161.6069   -3.2734 H   0  0  0  0  0  0  0  0  0  0  0  0
   60.6670  160.4958   -4.0366 H   0  0  0  0  0  0  0  0  0  0  0  0
   60.5427  160.2279   -6.6957 H   0  0  0  0  0  0  0  0  0  0  0  0
   59.3325  161.1755   -7.5568 H   0  0  0  0  0  0  0  0  0  0  0  0
   59.6907  158.2797   -5.1129 H   0  0  0  0  0  0  0  0  0  0  0  0
   58.4733  162.1042   -5.4422 H   0  0  0  0  0  0  0  0  0  0  0  0
   55.9262  155.0464   -7.5858 H   0  0  0  0  0  0  0  0  0  0  0  0
   57.5917  154.5419   -7.2076 H   0  0  0  0  0  0  0  0  0  0  0  0
   56.2408  153.8083   -6.3449 H   0  0  0  0  0  0  0  0  0  0  0  0
   61.1354  164.5351   -4.5221 H   0  0  0  0  0  0  0  0  0  0  0  0
   60.5597  163.2311   -3.4731 H   0  0  0  0  0  0  0  0  0  0  0  0
   59.4032  164.1919   -4.4065 H   0  0  0  0  0  0  0  0  0  0  0  0
   61.0194  164.2761   -7.0635 H   0  0  0  0  0  0  0  0  0  0  0  0
   60.3630  162.7973   -7.7806 H   0  0  0  0  0  0  0  0  0  0  0  0
   59.2853  163.9375   -6.9617 H   0  0  0  0  0  0  0  0  0  0  0  0
   62.6864  162.8913   -5.7188 H   0  0  0  0  0  0  0  0  0  0  0  0
   62.0412  161.4030   -6.4263 H   0  0  0  0  0  0  0  0  0  0  0  0
   62.1181  161.5859   -4.6676 H   0  0  0  0  0  0  0  0  0  0  0  0
   54.9070  155.9336   -2.1279 H   0  0  0  0  0  0  0  0  0  0  0  0
   55.4126  157.5974   -1.8312 H   0  0  0  0  0  0  0  0  0  0  0  0
   53.1434  157.8404   -2.2606 H   0  0  0  0  0  0  0  0  0  0  0  0
   53.2956  157.0715   -3.8225 H   0  0  0  0  0  0  0  0  0  0  0  0
  1  2  1  0  0  0  0
  1  3  2  0  0  0  0
  2 11  1  0  0  0  0
  2 17  2  0  0  0  0
  3 15  1  0  0  0  0
  3 18  1  0  0  0  0
  4  9  1  0  0  0  0
  4 17  1  0  0  0  0
  4 18  2  0  0  0  0
  5  7  1  0  0  0  0
  5  9  1  0  0  0  0
  6  8  1  0  0  0  0
  6  9  1  0  0  0  0
  7 10  1  0  0  0  0
  8 10  1  0  0  0  0
 10 16  1  0  0  0  0
 12 16  1  0  0  0  0
 13 16  1  0  0  0  0
 14 16  1  0  0  0  0
 15 19  1  0  0  0  0
  1 20  1  0  0  0  0
  5 21  1  0  0  0  0
  5 22  1  0  0  0  0
  6 23  1  0  0  0  0
  6 24  1  0  0  0  0
  7 25  1  0  0  0  0
  7 26  1  0  0  0  0
  8 27  1  0  0  0  0
  8 28  1  0  0  0  0
  9 29  1  0  0  0  0
 10 30  1  0  0  0  0
 11 31  1  0  0  0  0
 11 32  1  0  0  0  0
 11 33  1  0  0  0  0
 12 34  1  0  0  0  0
 12 35  1  0  0  0  0
 12 36  1  0  0  0  0
 13 37  1  0  0  0  0
 13 38  1  0  0  0  0
 13 39  1  0  0  0  0
 14 40  1  0  0  0  0
 14 41  1  0  0  0  0
 14 42  1  0  0  0  0
 15 43  1  0  0  0  0
 15 44  1  0  0  0  0
 19 45  1  0  0  0  0
 19 46  1  0  0  0  0
M  END
> <FRED Chemgauss4 score>
-6.288123

$$$$
C12504391	P18375293
  -OEChem-05122015083D

 28 28  0     1  0  0  0  0  0999 V2000
   53.2859  155.2900   -4.3429 C   0  0  1  0  0  0  0  0  0  0  0  0
   54.0910  155.9361   -5.4735 C   0  0  1  0  0  0  0  0  0  0  0  0
   53.6874  155.8720   -2.9878 C   0  0  1  0  0  0  0  0  0  0  0  0
   55.5924  155.8896   -5.1570 C   0  0  1  0  0  0  0  0  0  0  0  0
   55.2026  155.7767   -2.8113 C   0  0  1  0  0  0  0  0  0  0  0  0
   57.8944  156.6655   -5.8124 C   0  0  0  0  0  0  0  0  0  0  0  0
   56.4178  156.6638   -6.1803 C   0  0  2  0  0  0  0  0  0  0  0  0
   55.8619  156.4670   -3.8753 O   0  0  0  0  0  0  0  0  0  0  0  0
   51.8956  155.5016   -4.5744 O   0  0  0  0  0  0  0  0  0  0  0  0
   53.8184  155.2210   -6.6763 O   0  0  0  0  0  0  0  0  0  0  0  0
   53.2981  157.2483   -2.9419 O   0  0  0  0  0  0  0  0  0  0  0  0
   55.5500  156.3455   -1.5525 O   0  0  0  0  0  0  0  0  0  0  0  0
   58.6548  156.9981   -6.9690 O   0  0  0  0  0  0  0  0  0  0  0  0
   55.9584  158.0128   -6.2112 O   0  0  0  0  0  0  0  0  0  0  0  0
   53.4497  154.2051   -4.3508 H   0  0  0  0  0  0  0  0  0  0  0  0
   53.7500  156.9690   -5.6166 H   0  0  0  0  0  0  0  0  0  0  0  0
   53.1556  155.3693   -2.1725 H   0  0  0  0  0  0  0  0  0  0  0  0
   55.9495  154.8512   -5.1614 H   0  0  0  0  0  0  0  0  0  0  0  0
   55.5208  154.7267   -2.8039 H   0  0  0  0  0  0  0  0  0  0  0  0
   58.1111  157.4124   -5.0416 H   0  0  0  0  0  0  0  0  0  0  0  0
   58.2171  155.6787   -5.4661 H   0  0  0  0  0  0  0  0  0  0  0  0
   56.2747  156.2426   -7.1798 H   0  0  0  0  0  0  0  0  0  0  0  0
   51.4257  155.0786   -3.8390 H   0  0  0  0  0  0  0  0  0  0  0  0
   54.0947  154.3046   -6.5211 H   0  0  0  0  0  0  0  0  0  0  0  0
   53.7674  157.6863   -3.6666 H   0  0  0  0  0  0  0  0  0  0  0  0
   56.5136  156.2701   -1.4709 H   0  0  0  0  0  0  0  0  0  0  0  0
   59.5870  156.9902   -6.7003 H   0  0  0  0  0  0  0  0  0  0  0  0
   55.0233  157.9802   -6.4657 H   0  0  0  0  0  0  0  0  0  0  0  0
  1  2  1  0  0  0  0
  1  3  1  0  0  0  0
  1  9  1  0  0  0  0
  2  4  1  0  0  0  0
  2 10  1  0  0  0  0
  3  5  1  0  0  0  0
  3 11  1  0  0  0  0
  4  7  1  0  0  0  0
  4  8  1  0  0  0  0
  5  8  1  0  0  0  0
  5 12  1  0  0  0  0
  6  7  1  0  0  0  0
  6 13  1  0  0  0  0
  7 14  1  0  0  0  0
  1 15  1  0  0  0  0
  2 16  1  0  0  0  0
  3 17  1  0  0  0  0
  4 18  1  0  0  0  0
  5 19  1  0  0  0  0
  6 20  1  0  0  0  0
  6 21  1  0  0  0  0
  7 22  1  0  0  0  0
  9 23  1  0  0  0  0
 10 24  1  0  0  0  0
 11 25  1  0  0  0  0
 12 26  1  0  0  0  0
 13 27  1  0  0  0  0
 14 28  1  0  0  0  0
M  END
> <FRED Chemgauss4 score>
-6.287982

$$$$
C80627122	P125899765
  -OEChem-05122015083D

 22 22  0     0  0  0  0  0  0999 V2000
   54.2002  157.4553   -4.8232 C   0  0  0  0  0  0  0  0  0  0  0  0
   54.9030  157.8425   -2.8962 C   0  0  0  0  0  0  0  0  0  0  0  0
   57.4040  159.7726   -0.8516 C   0  0  0  0  0  0  0  0  0  0  0  0
   59.4020  160.8487   -2.0005 C   0  0  0  0  0  0  0  0  0  0  0  0
   55.7399  158.1162   -1.6801 C   0  0  0  0  0  0  0  0  0  0  0  0
   58.0953  161.0565   -1.2713 C   0  0  0  0  0  0  0  0  0  0  0  0
   55.3506  157.6620   -4.1171 N   0  0  0  0  0  0  0  0  0  0  0  0
   53.5464  157.7457   -2.8871 N   0  0  0  0  0  0  0  0  0  0  0  0
   53.0690  157.4966   -4.1160 N   0  0  0  0  0  0  0  0  0  0  0  0
   60.5127  160.7917   -1.2017 N   0  0  0  0  0  0  0  0  0  0  0  0
   56.5198  159.3243   -1.8211 N   0  0  0  0  0  0  0  0  0  0  0  0
   57.6280  159.2133    0.2187 O   0  0  0  0  0  0  0  0  0  0  0  0
   59.4915  160.7190   -3.6644 S   0  0  0  0  0  0  0  0  0  0  0  0
   54.2038  157.2696   -5.8892 H   0  0  0  0  0  0  0  0  0  0  0  0
   55.1071  158.2250   -0.7925 H   0  0  0  0  0  0  0  0  0  0  0  0
   56.4330  157.2909   -1.4862 H   0  0  0  0  0  0  0  0  0  0  0  0
   57.4019  161.6025   -1.9235 H   0  0  0  0  0  0  0  0  0  0  0  0
   58.2639  161.6743   -0.3806 H   0  0  0  0  0  0  0  0  0  0  0  0
   52.0781  157.3900   -4.3151 H   0  0  0  0  0  0  0  0  0  0  0  0
   60.4373  160.8841   -0.1941 H   0  0  0  0  0  0  0  0  0  0  0  0
   61.4455  160.6544   -1.5773 H   0  0  0  0  0  0  0  0  0  0  0  0
   56.3887  159.8728   -2.6660 H   0  0  0  0  0  0  0  0  0  0  0  0
  1  7  2  0  0  0  0
  1  9  1  0  0  0  0
  2  5  1  0  0  0  0
  2  7  1  0  0  0  0
  2  8  2  0  0  0  0
  3  6  1  0  0  0  0
  3 11  1  0  0  0  0
  3 12  2  0  0  0  0
  4  6  1  0  0  0  0
  4 10  1  0  0  0  0
  4 13  2  0  0  0  0
  5 11  1  0  0  0  0
  8  9  1  0  0  0  0
  1 14  1  0  0  0  0
  5 15  1  0  0  0  0
  5 16  1  0  0  0  0
  6 17  1  0  0  0  0
  6 18  1  0  0  0  0
  9 19  1  0  0  0  0
 10 20  1  0  0  0  0
 10 21  1  0  0  0  0
 11 22  1  0  0  0  0
M  END
> <FRED Chemgauss4 score>
-6.287757

$$$$
C13542855	P133974200
  -OEChem-05122015083D

 13 13  0     1  0  0  0  0  0999 V2000
   54.1877  156.5027   -3.4759 C   0  0  0  0  0  0  0  0  0  0  0  0
   55.7834  155.8163   -4.7945 C   0  0  0  0  0  0  0  0  0  0  0  0
   53.5028  155.5471   -4.4525 C   0  0  2  0  0  0  0  0  0  0  0  0
   55.4637  156.6233   -3.7277 N   0  0  0  0  0  0  0  0  0  0  0  0
   54.6467  155.1647   -5.2151 N   0  0  0  0  0  0  0  0  0  0  0  0
   52.5140  156.2324   -5.3118 N   0  3  0  0  0  0  0  0  0  0  0  0
   53.5156  157.0435   -2.5758 O   0  5  0  0  0  0  0  0  0  0  0  0
   56.8972  155.6899   -5.2877 O   0  0  0  0  0  0  0  0  0  0  0  0
   53.0374  154.6822   -3.9719 H   0  0  0  0  0  0  0  0  0  0  0  0
   54.6267  154.5030   -5.9848 H   0  0  0  0  0  0  0  0  0  0  0  0
   51.6135  156.3408   -4.8292 H   0  0  0  0  0  0  0  0  0  0  0  0
   52.3430  155.7034   -6.1760 H   0  0  0  0  0  0  0  0  0  0  0  0
   52.8396  157.1696   -5.5790 H   0  0  0  0  0  0  0  0  0  0  0  0
  1  3  1  0  0  0  0
  1  4  2  0  0  0  0
  1  7  1  0  0  0  0
  2  4  1  0  0  0  0
  2  5  1  0  0  0  0
  2  8  2  0  0  0  0
  3  5  1  0  0  0  0
  3  6  1  0  0  0  0
  3  9  1  0  0  0  0
  5 10  1  0  0  0  0
  6 11  1  0  0  0  0
  6 12  1  0  0  0  0
  6 13  1  0  0  0  0
M  CHG  2   6   1   7  -1
M  END
> <FRED Chemgauss4 score>
-6.283626

$$$$
C85418703	P133700532
  -OEChem-05122015083D

 27 27  0     0  0  0  0  0  0999 V2000
   55.4075  155.4810   -4.9914 C   0  0  0  0  0  0  0  0  0  0  0  0
   55.7656  154.9336   -6.1977 C   0  0  0  0  0  0  0  0  0  0  0  0
   53.5977  151.9386   -9.3197 C   0  0  0  0  0  0  0  0  0  0  0  0
   55.6829  153.5040   -6.6489 C   0  0  0  0  0  0  0  0  0  0  0  0
   54.7661  152.1137   -8.3772 C   0  0  0  0  0  0  0  0  0  0  0  0
   55.5154  157.8588   -4.1793 C   0  0  0  0  0  0  0  0  0  0  0  0
   54.0651  158.3105   -4.0728 C   0  0  0  0  0  0  0  0  0  0  0  0
   56.2457  155.9129   -7.0223 N   0  0  0  0  0  0  0  0  0  0  0  0
   56.1979  157.0637   -6.3601 N   0  0  0  0  0  0  0  0  0  0  0  0
   55.6953  156.8025   -5.1426 N   0  0  0  0  0  0  0  0  0  0  0  0
   53.7883  152.5934  -10.5175 N   0  0  0  0  0  0  0  0  0  0  0  0
   54.5687  153.2848   -7.5746 N   0  0  0  0  0  0  0  0  0  0  0  0
   52.6104  151.2534   -9.0674 O   0  0  0  0  0  0  0  0  0  0  0  0
   53.2563  157.2255   -3.6369 O   0  0  0  0  0  0  0  0  0  0  0  0
   54.9923  155.0670   -4.0834 H   0  0  0  0  0  0  0  0  0  0  0  0
   56.6067  153.2051   -7.1562 H   0  0  0  0  0  0  0  0  0  0  0  0
   55.5474  152.8301   -5.7964 H   0  0  0  0  0  0  0  0  0  0  0  0
   55.7003  152.2368   -8.9320 H   0  0  0  0  0  0  0  0  0  0  0  0
   54.8362  151.2454   -7.7163 H   0  0  0  0  0  0  0  0  0  0  0  0
   55.8878  157.4937   -3.2151 H   0  0  0  0  0  0  0  0  0  0  0  0
   56.1546  158.6923   -4.4927 H   0  0  0  0  0  0  0  0  0  0  0  0
   53.9800  159.1111   -3.3313 H   0  0  0  0  0  0  0  0  0  0  0  0
   53.6798  158.6735   -5.0311 H   0  0  0  0  0  0  0  0  0  0  0  0
   54.6376  153.1194  -10.6947 H   0  0  0  0  0  0  0  0  0  0  0  0
   53.0987  152.5765  -11.2622 H   0  0  0  0  0  0  0  0  0  0  0  0
   53.7063  153.2000   -7.0224 H   0  0  0  0  0  0  0  0  0  0  0  0
   52.3461  157.5587   -3.5841 H   0  0  0  0  0  0  0  0  0  0  0  0
  1  2  2  0  0  0  0
  1 10  1  0  0  0  0
  2  4  1  0  0  0  0
  2  8  1  0  0  0  0
  3  5  1  0  0  0  0
  3 11  1  0  0  0  0
  3 13  2  0  0  0  0
  4 12  1  0  0  0  0
  5 12  1  0  0  0  0
  6  7  1  0  0  0  0
  6 10  1  0  0  0  0
  7 14  1  0  0  0  0
  8  9  2  0  0  0  0
  9 10  1  0  0  0  0
  1 15  1  0  0  0  0
  4 16  1  0  0  0  0
  4 17  1  0  0  0  0
  5 18  1  0  0  0  0
  5 19  1  0  0  0  0
  6 20  1  0  0  0  0
  6 21  1  0  0  0  0
  7 22  1  0  0  0  0
  7 23  1  0  0  0  0
 11 24  1  0  0  0  0
 11 25  1  0  0  0  0
 12 26  1  0  0  0  0
 14 27  1  0  0  0  0
M  END
> <FRED Chemgauss4 score>
-6.283285

$$$$
C72210676	P112179503
  -OEChem-05122015083D

 20 20  0     0  0  0  0  0  0999 V2000
   54.9767  155.7709   -7.0125 C   0  0  0  0  0  0  0  0  0  0  0  0
   56.2290  155.1823   -6.9076 C   0  0  0  0  0  0  0  0  0  0  0  0
   56.0204  155.0321   -4.5737 C   0  0  0  0  0  0  0  0  0  0  0  0
   54.2393  155.9885   -5.8527 C   0  0  0  0  0  0  0  0  0  0  0  0
   54.7627  155.6169   -4.6180 C   0  0  0  0  0  0  0  0  0  0  0  0
   52.6245  157.5184   -6.9830 C   0  0  0  0  0  0  0  0  0  0  0  0
   56.7091  154.8341   -5.7060 N   0  3  0  0  0  0  0  0  0  0  0  0
   52.9644  156.5870   -5.9534 N   0  0  0  0  0  0  0  0  0  0  0  0
   52.7815  154.8967   -3.2070 O   0  5  0  0  0  0  0  0  0  0  0  0
   54.8451  155.5777   -2.0470 O   0  0  0  0  0  0  0  0  0  0  0  0
   53.4740  157.2734   -3.1898 O   0  0  0  0  0  0  0  0  0  0  0  0
   53.8865  155.8634   -3.1266 S   0  0  0  0  0  0  0  0  0  0  0  0
   54.5903  156.0519   -7.9873 H   0  0  0  0  0  0  0  0  0  0  0  0
   56.8705  154.9757   -7.7531 H   0  0  0  0  0  0  0  0  0  0  0  0
   56.5123  154.7094   -3.6662 H   0  0  0  0  0  0  0  0  0  0  0  0
   53.4802  157.6759   -7.6446 H   0  0  0  0  0  0  0  0  0  0  0  0
   52.3372  158.4780   -6.5447 H   0  0  0  0  0  0  0  0  0  0  0  0
   51.7873  157.1387   -7.5748 H   0  0  0  0  0  0  0  0  0  0  0  0
   57.6314  154.4030   -5.6514 H   0  0  0  0  0  0  0  0  0  0  0  0
   52.2881  156.3314   -5.2600 H   0  0  0  0  0  0  0  0  0  0  0  0
  1  2  2  0  0  0  0
  1  4  1  0  0  0  0
  2  7  1  0  0  0  0
  3  5  1  0  0  0  0
  3  7  2  0  0  0  0
  4  5  2  0  0  0  0
  4  8  1  0  0  0  0
  5 12  1  0  0  0  0
  6  8  1  0  0  0  0
  9 12  1  0  0  0  0
 10 12  2  0  0  0  0
 11 12  2  0  0  0  0
  1 13  1  0  0  0  0
  2 14  1  0  0  0  0
  3 15  1  0  0  0  0
  6 16  1  0  0  0  0
  6 17  1  0  0  0  0
  6 18  1  0  0  0  0
  7 19  1  0  0  0  0
  8 20  1  0  0  0  0
M  CHG  2   7   1   9  -1
M  END
> <FRED Chemgauss4 score>
-6.281566

$$$$
C86007953	P134727430
  -OEChem-05122015083D

 33 33  0     1  0  0  0  0  0999 V2000
   58.3587  154.9948   -7.1909 C   0  0  0  0  0  0  0  0  0  0  0  0
   56.8962  156.8157   -6.6055 C   0  0  0  0  0  0  0  0  0  0  0  0
   57.2052  154.0262   -6.9494 C   0  0  0  0  0  0  0  0  0  0  0  0
   55.7663  155.8039   -6.3800 C   0  0  2  0  0  0  0  0  0  0  0  0
   59.8454  156.7572   -8.9074 C   0  0  0  0  0  0  0  0  0  0  0  0
   54.8141  156.2791   -5.2910 C   0  0  0  0  0  0  0  0  0  0  0  0
   58.9213  157.2472   -7.8450 C   0  0  0  0  0  0  0  0  0  0  0  0
   53.0457  155.5419   -3.6499 C   0  0  0  0  0  0  0  0  0  0  0  0
   53.6827  155.2802   -5.0149 C   0  0  1  0  0  0  0  0  0  0  0  0
   57.8327  156.2995   -7.6149 N   0  0  1  0  0  0  0  0  0  0  0  0
   52.6596  155.4007   -6.0364 N   0  0  0  0  0  0  0  0  0  0  0  0
   56.3148  154.5485   -5.9629 O   0  0  0  0  0  0  0  0  0  0  0  0
   54.0336  155.4067   -2.6342 O   0  0  0  0  0  0  0  0  0  0  0  0
   58.9447  155.1019   -6.2688 H   0  0  0  0  0  0  0  0  0  0  0  0
   59.0152  154.5801   -7.9644 H   0  0  0  0  0  0  0  0  0  0  0  0
   56.4669  157.7661   -6.9448 H   0  0  0  0  0  0  0  0  0  0  0  0
   57.4257  157.0020   -5.6614 H   0  0  0  0  0  0  0  0  0  0  0  0
   56.6494  153.8199   -7.8723 H   0  0  0  0  0  0  0  0  0  0  0  0
   57.5918  153.0724   -6.5763 H   0  0  0  0  0  0  0  0  0  0  0  0
   55.1940  155.6513   -7.3042 H   0  0  0  0  0  0  0  0  0  0  0  0
   60.2953  155.7998   -8.6229 H   0  0  0  0  0  0  0  0  0  0  0  0
   59.3175  156.6392   -9.8599 H   0  0  0  0  0  0  0  0  0  0  0  0
   60.6562  157.4804   -9.0568 H   0  0  0  0  0  0  0  0  0  0  0  0
   54.3841  157.2383   -5.6051 H   0  0  0  0  0  0  0  0  0  0  0  0
   55.3865  156.4704   -4.3745 H   0  0  0  0  0  0  0  0  0  0  0  0
   58.4757  158.2033   -8.1355 H   0  0  0  0  0  0  0  0  0  0  0  0
   59.4536  157.3795   -6.8985 H   0  0  0  0  0  0  0  0  0  0  0  0
   52.6208  156.5498   -3.5896 H   0  0  0  0  0  0  0  0  0  0  0  0
   52.2553  154.8123   -3.4448 H   0  0  0  0  0  0  0  0  0  0  0  0
   54.0735  154.2563   -5.0426 H   0  0  0  0  0  0  0  0  0  0  0  0
   51.7304  155.0952   -5.8214 H   0  0  0  0  0  0  0  0  0  0  0  0
   52.9434  155.5894   -6.9781 H   0  0  0  0  0  0  0  0  0  0  0  0
   53.5892  155.5799   -1.7892 H   0  0  0  0  0  0  0  0  0  0  0  0
  1  3  1  0  0  0  0
  1 10  1  0  0  0  0
  2  4  1  0  0  0  0
  2 10  1  0  0  0  0
  3 12  1  0  0  0  0
  4  6  1  0  0  0  0
  4 12  1  0  0  0  0
  5  7  1  0  0  0  0
  6  9  1  0  0  0  0
  7 10  1  0  0  0  0
  8  9  1  0  0  0  0
  8 13  1  0  0  0  0
  9 11  1  0  0  0  0
  1 14  1  0  0  0  0
  1 15  1  0  0  0  0
  2 16  1  0  0  0  0
  2 17  1  0  0  0  0
  3 18  1  0  0  0  0
  3 19  1  0  0  0  0
  4 20  1  0  0  0  0
  5 21  1  0  0  0  0
  5 22  1  0  0  0  0
  5 23  1  0  0  0  0
  6 24  1  0  0  0  0
  6 25  1  0  0  0  0
  7 26  1  0  0  0  0
  7 27  1  0  0  0  0
  8 28  1  0  0  0  0
  8 29  1  0  0  0  0
  9 30  1  0  0  0  0
 11 31  1  0  0  0  0
 11 32  1  0  0  0  0
 13 33  1  0  0  0  0
M  END
> <FRED Chemgauss4 score>
-6.281090

$$$$
C69232463	P106461500
  -OEChem-05122015083D

 48 50  0     1  0  0  0  0  0999 V2000
   53.3321  155.8551   -3.8190 C   0  0  0  0  0  0  0  0  0  0  0  0
   59.5979  160.5358   -6.5726 C   0  0  0  0  0  0  0  0  0  0  0  0
   53.9637  153.3619   -5.1710 C   0  0  0  0  0  0  0  0  0  0  0  0
   55.4177  153.5982   -5.4704 C   0  0  0  0  0  0  0  0  0  0  0  0
   58.8903  159.9062   -5.3758 C   0  0  0  0  0  0  0  0  0  0  0  0
   58.3680  155.9557   -7.2382 C   0  0  0  0  0  0  0  0  0  0  0  0
   59.4250  159.5338   -7.7090 C   0  0  0  0  0  0  0  0  0  0  0  0
   58.4356  157.3159   -7.9322 C   0  0  0  0  0  0  0  0  0  0  0  0
   57.1567  155.7189   -6.3261 C   0  0  0  0  0  0  0  0  0  0  0  0
   57.7055  157.6960   -4.9493 C   0  0  0  0  0  0  0  0  0  0  0  0
   54.4038  154.6652   -5.7780 C   0  0  0  0  0  0  0  0  0  0  0  0
   58.0749  158.7656   -5.9810 C   0  0  2  0  0  0  0  0  0  0  0  0
   53.8030  158.2686   -5.1569 C   0  0  0  0  0  0  0  0  0  0  0  0
   55.7788  156.3206   -4.4528 C   0  0  0  0  0  0  0  0  0  0  0  0
   54.3647  155.9435   -4.9569 C   0  0  2  0  0  0  0  0  0  0  0  0
   58.9934  158.3138   -7.0271 N   0  0  2  0  0  0  0  0  0  0  0  0
   56.6647  156.8273   -5.5016 N   0  0  2  0  0  0  0  0  0  0  0  0
   52.0333  155.6421   -4.2280 N   0  0  0  0  0  0  0  0  0  0  0  0
   53.9002  157.0061   -5.8651 N   0  0  0  0  0  0  0  0  0  0  0  0
   53.6387  155.9664   -2.6322 O   0  0  0  0  0  0  0  0  0  0  0  0
   59.1485  161.4996   -6.8347 H   0  0  0  0  0  0  0  0  0  0  0  0
   60.6551  160.7059   -6.3413 H   0  0  0  0  0  0  0  0  0  0  0  0
   53.4305  152.6534   -5.7930 H   0  0  0  0  0  0  0  0  0  0  0  0
   53.6553  153.3682   -4.1328 H   0  0  0  0  0  0  0  0  0  0  0  0
   56.0842  153.7627   -4.6327 H   0  0  0  0  0  0  0  0  0  0  0  0
   55.8579  153.0482   -6.2930 H   0  0  0  0  0  0  0  0  0  0  0  0
   59.6347  159.5304   -4.6621 H   0  0  0  0  0  0  0  0  0  0  0  0
   58.2591  160.6312   -4.8518 H   0  0  0  0  0  0  0  0  0  0  0  0
   58.3601  155.1743   -8.0097 H   0  0  0  0  0  0  0  0  0  0  0  0
   59.2910  155.7904   -6.6653 H   0  0  0  0  0  0  0  0  0  0  0  0
   58.6636  159.8965   -8.4113 H   0  0  0  0  0  0  0  0  0  0  0  0
   60.3606  159.3860   -8.2573 H   0  0  0  0  0  0  0  0  0  0  0  0
   59.1131  157.2057   -8.7886 H   0  0  0  0  0  0  0  0  0  0  0  0
   57.4586  157.6121   -8.3331 H   0  0  0  0  0  0  0  0  0  0  0  0
   56.3231  155.3945   -6.9625 H   0  0  0  0  0  0  0  0  0  0  0  0
   57.4078  154.8573   -5.6919 H   0  0  0  0  0  0  0  0  0  0  0  0
   58.5769  157.1271   -4.6002 H   0  0  0  0  0  0  0  0  0  0  0  0
   57.3168  158.2257   -4.0689 H   0  0  0  0  0  0  0  0  0  0  0  0
   54.1609  154.8428   -6.8187 H   0  0  0  0  0  0  0  0  0  0  0  0
   57.1608  159.1913   -6.4226 H   0  0  0  0  0  0  0  0  0  0  0  0
   53.0880  158.1838   -4.3343 H   0  0  0  0  0  0  0  0  0  0  0  0
   53.4671  159.0576   -5.8352 H   0  0  0  0  0  0  0  0  0  0  0  0
   54.7776  158.5489   -4.7485 H   0  0  0  0  0  0  0  0  0  0  0  0
   55.7277  157.0851   -3.6686 H   0  0  0  0  0  0  0  0  0  0  0  0
   56.2628  155.4475   -3.9972 H   0  0  0  0  0  0  0  0  0  0  0  0
   51.8093  155.5457   -5.2129 H   0  0  0  0  0  0  0  0  0  0  0  0
   51.2593  155.5550   -3.5784 H   0  0  0  0  0  0  0  0  0  0  0  0
   54.5641  157.0871   -6.6278 H   0  0  0  0  0  0  0  0  0  0  0  0
  1 15  1  0  0  0  0
  1 18  1  0  0  0  0
  1 20  2  0  0  0  0
  2  5  1  0  0  0  0
  2  7  1  0  0  0  0
  3  4  1  0  0  0  0
  3 11  1  0  0  0  0
  4 11  1  0  0  0  0
  5 12  1  0  0  0  0
  6  8  1  0  0  0  0
  6  9  1  0  0  0  0
  7 16  1  0  0  0  0
  8 16  1  0  0  0  0
  9 17  1  0  0  0  0
 10 12  1  0  0  0  0
 10 17  1  0  0  0  0
 11 15  1  0  0  0  0
 12 16  1  0  0  0  0
 13 19  1  0  0  0  0
 14 15  1  0  0  0  0
 14 17  1  0  0  0  0
 15 19  1  0  0  0  0
  2 21  1  0  0  0  0
  2 22  1  0  0  0  0
  3 23  1  0  0  0  0
  3 24  1  0  0  0  0
  4 25  1  0  0  0  0
  4 26  1  0  0  0  0
  5 27  1  0  0  0  0
  5 28  1  0  0  0  0
  6 29  1  0  0  0  0
  6 30  1  0  0  0  0
  7 31  1  0  0  0  0
  7 32  1  0  0  0  0
  8 33  1  0  0  0  0
  8 34  1  0  0  0  0
  9 35  1  0  0  0  0
  9 36  1  0  0  0  0
 10 37  1  0  0  0  0
 10 38  1  0  0  0  0
 11 39  1  0  0  0  0
 12 40  1  0  0  0  0
 13 41  1  0  0  0  0
 13 42  1  0  0  0  0
 13 43  1  0  0  0  0
 14 44  1  0  0  0  0
 14 45  1  0  0  0  0
 18 46  1  0  0  0  0
 18 47  1  0  0  0  0
 19 48  1  0  0  0  0
M  END
> <FRED Chemgauss4 score>
-6.279947

$$$$
C70914375	P109455270
  -OEChem-05122015083D

 21 21  0     1  0  0  0  0  0999 V2000
   55.5153  153.9983   -6.2388 C   0  0  0  0  0  0  0  0  0  0  0  0
   56.8361  154.0081   -6.4347 C   0  0  0  0  0  0  0  0  0  0  0  0
   55.8486  156.3072   -6.1746 C   0  0  0  0  0  0  0  0  0  0  0  0
   53.5358  155.4408   -5.8734 C   0  0  0  0  0  0  0  0  0  0  0  0
   53.8300  156.0380   -3.4137 C   0  0  0  0  0  0  0  0  0  0  0  0
   53.1124  155.1521   -4.4324 C   0  0  1  0  0  0  0  0  0  0  0  0
   54.9445  155.2480   -6.0923 N   0  0  0  0  0  0  0  0  0  0  0  0
   53.5469  157.4306   -3.6834 N   0  0  0  0  0  0  0  0  0  0  0  0
   55.6385  157.5065   -6.0840 O   0  0  0  0  0  0  0  0  0  0  0  0
   51.7045  155.3509   -4.3044 O   0  0  0  0  0  0  0  0  0  0  0  0
   57.4690  155.6244   -6.4493 S   0  0  0  0  0  0  0  0  0  0  0  0
   54.8898  153.1188   -6.1871 H   0  0  0  0  0  0  0  0  0  0  0  0
   57.4547  153.1323   -6.5676 H   0  0  0  0  0  0  0  0  0  0  0  0
   53.0033  154.7897   -6.5737 H   0  0  0  0  0  0  0  0  0  0  0  0
   53.3209  156.4819   -6.1348 H   0  0  0  0  0  0  0  0  0  0  0  0
   54.9144  155.8945   -3.4606 H   0  0  0  0  0  0  0  0  0  0  0  0
   53.4924  155.8052   -2.3986 H   0  0  0  0  0  0  0  0  0  0  0  0
   53.3119  154.0962   -4.2120 H   0  0  0  0  0  0  0  0  0  0  0  0
   53.4925  157.7365   -4.6377 H   0  0  0  0  0  0  0  0  0  0  0  0
   53.6133  158.0914   -2.9309 H   0  0  0  0  0  0  0  0  0  0  0  0
   51.2836  154.7332   -4.9211 H   0  0  0  0  0  0  0  0  0  0  0  0
  1  2  2  0  0  0  0
  1  7  1  0  0  0  0
  2 11  1  0  0  0  0
  3  7  1  0  0  0  0
  3  9  2  0  0  0  0
  3 11  1  0  0  0  0
  4  6  1  0  0  0  0
  4  7  1  0  0  0  0
  5  6  1  0  0  0  0
  5  8  1  0  0  0  0
  6 10  1  0  0  0  0
  1 12  1  0  0  0  0
  2 13  1  0  0  0  0
  4 14  1  0  0  0  0
  4 15  1  0  0  0  0
  5 16  1  0  0  0  0
  5 17  1  0  0  0  0
  6 18  1  0  0  0  0
  8 19  1  0  0  0  0
  8 20  1  0  0  0  0
 10 21  1  0  0  0  0
M  END
> <FRED Chemgauss4 score>
-6.275333

$$$$
C92852498	P145382574
  -OEChem-05122015083D

 36 38  0     0  0  0  0  0  0999 V2000
   58.5063  160.9306   -1.6053 C   0  0  0  0  0  0  0  0  0  0  0  0
   58.5301  160.3262   -3.9444 C   0  0  0  0  0  0  0  0  0  0  0  0
   59.6542  161.7005   -1.7925 C   0  0  0  0  0  0  0  0  0  0  0  0
   59.6780  161.0962   -4.1316 C   0  0  0  0  0  0  0  0  0  0  0  0
   55.7032  159.5738   -1.6130 C   0  0  0  0  0  0  0  0  0  0  0  0
   57.1090  155.0965   -6.9212 C   0  0  0  0  0  0  0  0  0  0  0  0
   57.9443  160.2433   -2.6812 C   0  0  0  0  0  0  0  0  0  0  0  0
   60.2401  161.7833   -3.0557 C   0  0  0  0  0  0  0  0  0  0  0  0
   56.7566  159.4476   -2.4876 C   0  0  0  0  0  0  0  0  0  0  0  0
   55.2220  155.1896   -6.0336 C   0  0  0  0  0  0  0  0  0  0  0  0
   55.2775  157.8386   -2.7698 C   0  0  0  0  0  0  0  0  0  0  0  0
   57.4268  152.5820   -7.1902 C   0  0  0  0  0  0  0  0  0  0  0  0
   53.9292  155.6231   -5.4052 C   0  0  0  0  0  0  0  0  0  0  0  0
   54.6754  156.6274   -3.3569 C   0  0  0  0  0  0  0  0  0  0  0  0
   54.7860  158.5689   -1.7936 N   0  0  0  0  0  0  0  0  0  0  0  0
   56.1847  155.9817   -6.4451 N   0  0  0  0  0  0  0  0  0  0  0  0
   55.5678  153.8937   -6.2592 N   0  0  0  0  0  0  0  0  0  0  0  0
   56.4700  158.3314   -3.2218 N   0  0  0  0  0  0  0  0  0  0  0  0
   56.7788  153.8065   -6.8302 N   0  0  0  0  0  0  0  0  0  0  0  0
   54.0770  156.8656   -4.6531 N   0  0  0  0  0  0  0  0  0  0  0  0
   61.7934  162.8293   -3.3106 Br  0  0  0  0  0  0  0  0  0  0  0  0
   58.0616  160.8760   -0.6143 H   0  0  0  0  0  0  0  0  0  0  0  0
   58.1036  159.7967   -4.7931 H   0  0  0  0  0  0  0  0  0  0  0  0
   60.0797  162.2301   -0.9439 H   0  0  0  0  0  0  0  0  0  0  0  0
   60.1214  161.1510   -5.1226 H   0  0  0  0  0  0  0  0  0  0  0  0
   55.5541  160.3348   -0.8605 H   0  0  0  0  0  0  0  0  0  0  0  0
   58.0502  155.4239   -7.3450 H   0  0  0  0  0  0  0  0  0  0  0  0
   58.0170  152.2480   -6.3327 H   0  0  0  0  0  0  0  0  0  0  0  0
   56.6729  151.8338   -7.4501 H   0  0  0  0  0  0  0  0  0  0  0  0
   58.0723  152.7557   -8.0557 H   0  0  0  0  0  0  0  0  0  0  0  0
   53.1618  155.7815   -6.1708 H   0  0  0  0  0  0  0  0  0  0  0  0
   53.5505  154.8590   -4.7183 H   0  0  0  0  0  0  0  0  0  0  0  0
   55.4192  155.8214   -3.4942 H   0  0  0  0  0  0  0  0  0  0  0  0
   53.8815  156.2009   -2.7174 H   0  0  0  0  0  0  0  0  0  0  0  0
   57.0344  157.9396   -3.9646 H   0  0  0  0  0  0  0  0  0  0  0  0
   53.1543  157.2902   -4.5341 H   0  0  0  0  0  0  0  0  0  0  0  0
  1  3  2  0  0  0  0
  1  7  1  0  0  0  0
  2  4  1  0  0  0  0
  2  7  2  0  0  0  0
  3  8  1  0  0  0  0
  4  8  2  0  0  0  0
  5  9  2  0  0  0  0
  5 15  1  0  0  0  0
  6 16  2  0  0  0  0
  6 19  1  0  0  0  0
  7  9  1  0  0  0  0
  8 21  1  0  0  0  0
  9 18  1  0  0  0  0
 10 13  1  0  0  0  0
 10 16  1  0  0  0  0
 10 17  2  0  0  0  0
 11 14  1  0  0  0  0
 11 15  2  0  0  0  0
 11 18  1  0  0  0  0
 12 19  1  0  0  0  0
 13 20  1  0  0  0  0
 14 20  1  0  0  0  0
 17 19  1  0  0  0  0
  1 22  1  0  0  0  0
  2 23  1  0  0  0  0
  3 24  1  0  0  0  0
  4 25  1  0  0  0  0
  5 26  1  0  0  0  0
  6 27  1  0  0  0  0
 12 28  1  0  0  0  0
 12 29  1  0  0  0  0
 12 30  1  0  0  0  0
 13 31  1  0  0  0  0
 13 32  1  0  0  0  0
 14 33  1  0  0  0  0
 14 34  1  0  0  0  0
 18 35  1  0  0  0  0
 20 36  1  0  0  0  0
M  END
> <FRED Chemgauss4 score>
-6.274893

$$$$
C16735860	P25239542
  -OEChem-05122015083D

 45 47  0     1  0  0  0  0  0999 V2000
   51.5704  160.4102   -8.4455 C   0  0  0  0  0  0  0  0  0  0  0  0
   54.5712  158.5584   -3.3957 C   0  0  0  0  0  0  0  0  0  0  0  0
   55.5668  159.1347   -2.5511 C   0  0  0  0  0  0  0  0  0  0  0  0
   55.7930  160.4598   -2.8718 C   0  0  0  0  0  0  0  0  0  0  0  0
   54.0804  159.4629   -4.3127 C   0  0  0  0  0  0  0  0  0  0  0  0
   54.1087  157.1943   -3.3330 C   0  0  0  0  0  0  0  0  0  0  0  0
   52.6614  160.3051   -6.2167 C   0  0  0  0  0  0  0  0  0  0  0  0
   56.3226  158.4387   -1.4618 C   0  0  0  0  0  0  0  0  0  0  0  0
   56.7542  161.3636   -2.1650 C   0  0  0  0  0  0  0  0  0  0  0  0
   57.0201  159.4370   -0.5246 C   0  0  0  0  0  0  0  0  0  0  0  0
   57.7355  160.5457   -1.3103 C   0  0  0  0  0  0  0  0  0  0  0  0
   56.8803  153.9963   -6.4318 C   0  0  0  0  0  0  0  0  0  0  0  0
   56.1906  154.2128   -5.1083 C   0  0  0  0  0  0  0  0  0  0  0  0
   56.0354  154.8364   -7.3661 C   0  0  0  0  0  0  0  0  0  0  0  0
   54.7312  154.2408   -5.5286 C   0  0  1  0  0  0  0  0  0  0  0  0
   51.5965  159.7394   -7.1410 C   0  0  0  0  0  0  0  0  0  0  0  0
   53.8435  155.0245   -4.5815 C   0  0  0  0  0  0  0  0  0  0  0  0
   51.5464  160.9382   -9.4785 N   0  0  0  0  0  0  0  0  0  0  0  0
   53.1331  159.3334   -5.2923 N   0  0  0  0  0  0  0  0  0  0  0  0
   54.2750  156.4002   -4.4806 N   0  0  0  0  0  0  0  0  0  0  0  0
   53.5624  156.7464   -2.3014 O   0  0  0  0  0  0  0  0  0  0  0  0
   53.0422  161.4691   -6.2903 O   0  0  0  0  0  0  0  0  0  0  0  0
   54.7020  154.8412   -6.8346 O   0  0  0  0  0  0  0  0  0  0  0  0
   54.8174  161.0009   -4.1577 S   0  0  0  0  0  0  0  0  0  0  0  0
   55.6520  157.8011   -0.8746 H   0  0  0  0  0  0  0  0  0  0  0  0
   57.0760  157.7870   -1.9216 H   0  0  0  0  0  0  0  0  0  0  0  0
   57.3169  161.9769   -2.8779 H   0  0  0  0  0  0  0  0  0  0  0  0
   56.1892  162.0436   -1.5157 H   0  0  0  0  0  0  0  0  0  0  0  0
   56.2787  159.8933    0.1440 H   0  0  0  0  0  0  0  0  0  0  0  0
   57.7376  158.9035    0.1089 H   0  0  0  0  0  0  0  0  0  0  0  0
   58.4954  160.0908   -1.9589 H   0  0  0  0  0  0  0  0  0  0  0  0
   58.2630  161.2139   -0.6203 H   0  0  0  0  0  0  0  0  0  0  0  0
   57.9342  154.2862   -6.4323 H   0  0  0  0  0  0  0  0  0  0  0  0
   56.8154  152.9395   -6.7168 H   0  0  0  0  0  0  0  0  0  0  0  0
   56.4066  153.4328   -4.3730 H   0  0  0  0  0  0  0  0  0  0  0  0
   56.4981  155.1777   -4.6871 H   0  0  0  0  0  0  0  0  0  0  0  0
   56.3864  155.8735   -7.3926 H   0  0  0  0  0  0  0  0  0  0  0  0
   56.0239  154.4457   -8.3874 H   0  0  0  0  0  0  0  0  0  0  0  0
   54.3409  153.2230   -5.6273 H   0  0  0  0  0  0  0  0  0  0  0  0
   51.7896  158.6693   -7.2794 H   0  0  0  0  0  0  0  0  0  0  0  0
   50.6216  159.8445   -6.6510 H   0  0  0  0  0  0  0  0  0  0  0  0
   53.8758  154.5901   -3.5778 H   0  0  0  0  0  0  0  0  0  0  0  0
   52.8072  155.0251   -4.9321 H   0  0  0  0  0  0  0  0  0  0  0  0
   52.6764  158.4068   -5.4004 H   0  0  0  0  0  0  0  0  0  0  0  0
   54.6659  156.8237   -5.3159 H   0  0  0  0  0  0  0  0  0  0  0  0
  1 16  1  0  0  0  0
  1 18  3  0  0  0  0
  2  3  1  0  0  0  0
  2  5  2  0  0  0  0
  2  6  1  0  0  0  0
  3  4  2  0  0  0  0
  3  8  1  0  0  0  0
  4  9  1  0  0  0  0
  4 24  1  0  0  0  0
  5 19  1  0  0  0  0
  5 24  1  0  0  0  0
  6 20  1  0  0  0  0
  6 21  2  0  0  0  0
  7 16  1  0  0  0  0
  7 19  1  0  0  0  0
  7 22  2  0  0  0  0
  8 10  1  0  0  0  0
  9 11  1  0  0  0  0
 10 11  1  0  0  0  0
 12 13  1  0  0  0  0
 12 14  1  0  0  0  0
 13 15  1  0  0  0  0
 14 23  1  0  0  0  0
 15 17  1  0  0  0  0
 15 23  1  0  0  0  0
 17 20  1  0  0  0  0
  8 25  1  0  0  0  0
  8 26  1  0  0  0  0
  9 27  1  0  0  0  0
  9 28  1  0  0  0  0
 10 29  1  0  0  0  0
 10 30  1  0  0  0  0
 11 31  1  0  0  0  0
 11 32  1  0  0  0  0
 12 33  1  0  0  0  0
 12 34  1  0  0  0  0
 13 35  1  0  0  0  0
 13 36  1  0  0  0  0
 14 37  1  0  0  0  0
 14 38  1  0  0  0  0
 15 39  1  0  0  0  0
 16 40  1  0  0  0  0
 16 41  1  0  0  0  0
 17 42  1  0  0  0  0
 17 43  1  0  0  0  0
 19 44  1  0  0  0  0
 20 45  1  0  0  0  0
M  END
> <FRED Chemgauss4 score>
-6.269049

$$$$
C82467277	P128880059
  -OEChem-05122015083D

 33 33  0     1  0  0  0  0  0999 V2000
   54.8971  158.5333   -4.4089 C   0  0  0  0  0  0  0  0  0  0  0  0
   59.7919  161.0876   -5.6813 C   0  0  0  0  0  0  0  0  0  0  0  0
   61.0366  161.7896   -6.2014 C   0  0  0  0  0  0  0  0  0  0  0  0
   59.6605  163.0829   -4.2878 C   0  0  0  0  0  0  0  0  0  0  0  0
   59.6073  161.5604   -4.2418 C   0  0  1  0  0  0  0  0  0  0  0  0
   57.9645  161.9132   -2.5329 C   0  0  0  0  0  0  0  0  0  0  0  0
   56.2757  159.1646   -4.4960 C   0  0  0  0  0  0  0  0  0  0  0  0
   57.0413  159.0825   -3.1767 C   0  0  0  0  0  0  0  0  0  0  0  0
   58.4367  159.6889   -3.3089 C   0  0  0  0  0  0  0  0  0  0  0  0
   52.9528  158.0959   -5.7153 N   0  0  0  0  0  0  0  0  0  0  0  0
   54.2249  158.6210   -5.6165 N   0  0  0  0  0  0  0  0  0  0  0  0
   58.3443  161.0944   -3.6855 N   0  0  2  0  0  0  0  0  0  0  0  0
   54.4583  158.0175   -3.3840 O   0  0  0  0  0  0  0  0  0  0  0  0
   60.9661  163.4599   -5.4936 S   0  0  0  0  0  0  0  0  0  0  0  0
   58.9241  161.3563   -6.2991 H   0  0  0  0  0  0  0  0  0  0  0  0
   59.9059  159.9995   -5.7414 H   0  0  0  0  0  0  0  0  0  0  0  0
   61.9454  161.2944   -5.8456 H   0  0  0  0  0  0  0  0  0  0  0  0
   61.0600  161.8250   -7.2940 H   0  0  0  0  0  0  0  0  0  0  0  0
   58.7237  163.5189   -4.6514 H   0  0  0  0  0  0  0  0  0  0  0  0
   59.8915  163.5180   -3.3110 H   0  0  0  0  0  0  0  0  0  0  0  0
   60.4224  161.1771   -3.6202 H   0  0  0  0  0  0  0  0  0  0  0  0
   57.0166  161.5611   -2.1179 H   0  0  0  0  0  0  0  0  0  0  0  0
   57.8507  162.9585   -2.8329 H   0  0  0  0  0  0  0  0  0  0  0  0
   58.7325  161.8529   -1.7570 H   0  0  0  0  0  0  0  0  0  0  0  0
   56.8373  158.6529   -5.2868 H   0  0  0  0  0  0  0  0  0  0  0  0
   56.1535  160.2131   -4.7932 H   0  0  0  0  0  0  0  0  0  0  0  0
   56.4792  159.6067   -2.3929 H   0  0  0  0  0  0  0  0  0  0  0  0
   57.1170  158.0336   -2.8618 H   0  0  0  0  0  0  0  0  0  0  0  0
   59.0100  159.1520   -4.0721 H   0  0  0  0  0  0  0  0  0  0  0  0
   58.9792  159.6021   -2.3612 H   0  0  0  0  0  0  0  0  0  0  0  0
   52.4386  158.6876   -6.3666 H   0  0  0  0  0  0  0  0  0  0  0  0
   52.5083  158.2253   -4.8073 H   0  0  0  0  0  0  0  0  0  0  0  0
   54.6620  159.0654   -6.4179 H   0  0  0  0  0  0  0  0  0  0  0  0
  1  7  1  0  0  0  0
  1 11  1  0  0  0  0
  1 13  2  0  0  0  0
  2  3  1  0  0  0  0
  2  5  1  0  0  0  0
  3 14  1  0  0  0  0
  4  5  1  0  0  0  0
  4 14  1  0  0  0  0
  5 12  1  0  0  0  0
  6 12  1  0  0  0  0
  7  8  1  0  0  0  0
  8  9  1  0  0  0  0
  9 12  1  0  0  0  0
 10 11  1  0  0  0  0
  2 15  1  0  0  0  0
  2 16  1  0  0  0  0
  3 17  1  0  0  0  0
  3 18  1  0  0  0  0
  4 19  1  0  0  0  0
  4 20  1  0  0  0  0
  5 21  1  0  0  0  0
  6 22  1  0  0  0  0
  6 23  1  0  0  0  0
  6 24  1  0  0  0  0
  7 25  1  0  0  0  0
  7 26  1  0  0  0  0
  8 27  1  0  0  0  0
  8 28  1  0  0  0  0
  9 29  1  0  0  0  0
  9 30  1  0  0  0  0
 10 31  1  0  0  0  0
 10 32  1  0  0  0  0
 11 33  1  0  0  0  0
M  END
> <FRED Chemgauss4 score>
-6.266456

$$$$
C67822127	P104135382
  -OEChem-05122015083D

 48 50  0     1  0  0  0  0  0999 V2000
   58.0634  162.9318   -3.2838 C   0  0  0  0  0  0  0  0  0  0  0  0
   56.7515  161.4809   -2.3182 C   0  0  0  0  0  0  0  0  0  0  0  0
   54.8475  158.4057   -2.8709 C   0  0  0  0  0  0  0  0  0  0  0  0
   59.2159  163.4928   -4.0318 C   0  0  0  0  0  0  0  0  0  0  0  0
   55.4315  156.3898   -4.3438 C   0  0  0  0  0  0  0  0  0  0  0  0
   53.9594  156.3194   -4.0639 C   0  0  0  0  0  0  0  0  0  0  0  0
   58.8242  160.5407   -3.3776 C   0  0  0  0  0  0  0  0  0  0  0  0
   59.3968  162.8515   -5.4085 C   0  0  0  0  0  0  0  0  0  0  0  0
   59.0921  160.4727   -4.8805 C   0  0  0  0  0  0  0  0  0  0  0  0
   54.6457  157.6476   -4.1409 C   0  0  0  0  0  0  0  0  0  0  0  0
   55.7031  159.7331    1.1606 C   0  0  0  0  0  0  0  0  0  0  0  0
   57.5850  161.3314    0.7599 C   0  0  0  0  0  0  0  0  0  0  0  0
   57.1506  159.4137   -0.8690 C   0  0  0  0  0  0  0  0  0  0  0  0
   56.2074  160.2034   -1.8215 C   0  0  2  0  0  0  0  0  0  0  0  0
   57.1207  159.8829    0.6007 C   0  0  0  0  0  0  0  0  0  0  0  0
   57.0322  163.5849   -2.7858 N   0  0  0  0  0  0  0  0  0  0  0  0
   56.2030  162.6660   -2.1750 N   0  0  0  0  0  0  0  0  0  0  0  0
   57.9180  161.6016   -3.0050 N   0  0  0  0  0  0  0  0  0  0  0  0
   60.0015  161.5165   -5.3626 N   0  0  0  0  0  0  0  0  0  0  0  0
   54.3905  158.5709   -5.2423 N   0  0  0  0  0  0  0  0  0  0  0  0
   55.8442  159.3479   -2.9478 N   0  0  0  0  0  0  0  0  0  0  0  0
   54.1474  158.1515   -1.8978 O   0  0  0  0  0  0  0  0  0  0  0  0
   59.0483  164.5683   -4.1691 H   0  0  0  0  0  0  0  0  0  0  0  0
   60.1319  163.3969   -3.4361 H   0  0  0  0  0  0  0  0  0  0  0  0
   56.1080  156.0806   -3.5557 H   0  0  0  0  0  0  0  0  0  0  0  0
   55.7664  156.1273   -5.3405 H   0  0  0  0  0  0  0  0  0  0  0  0
   53.3094  156.0086   -4.8734 H   0  0  0  0  0  0  0  0  0  0  0  0
   53.6505  155.9618   -3.0886 H   0  0  0  0  0  0  0  0  0  0  0  0
   58.3953  159.5876   -3.0510 H   0  0  0  0  0  0  0  0  0  0  0  0
   59.7508  160.6881   -2.8099 H   0  0  0  0  0  0  0  0  0  0  0  0
   58.4545  162.8329   -5.9705 H   0  0  0  0  0  0  0  0  0  0  0  0
   60.0842  163.4895   -5.9773 H   0  0  0  0  0  0  0  0  0  0  0  0
   59.5781  159.5107   -5.0831 H   0  0  0  0  0  0  0  0  0  0  0  0
   58.1572  160.4764   -5.4545 H   0  0  0  0  0  0  0  0  0  0  0  0
   54.9955  160.3528    0.5997 H   0  0  0  0  0  0  0  0  0  0  0  0
   55.6631  160.0490    2.2084 H   0  0  0  0  0  0  0  0  0  0  0  0
   55.3611  158.6939    1.1059 H   0  0  0  0  0  0  0  0  0  0  0  0
   56.9576  162.0153    0.1784 H   0  0  0  0  0  0  0  0  0  0  0  0
   58.6211  161.4582    0.4332 H   0  0  0  0  0  0  0  0  0  0  0  0
   57.5376  161.6405    1.8098 H   0  0  0  0  0  0  0  0  0  0  0  0
   58.1802  159.4884   -1.2447 H   0  0  0  0  0  0  0  0  0  0  0  0
   56.9056  158.3428   -0.9046 H   0  0  0  0  0  0  0  0  0  0  0  0
   55.2429  160.3372   -1.2877 H   0  0  0  0  0  0  0  0  0  0  0  0
   57.7789  159.2425    1.1999 H   0  0  0  0  0  0  0  0  0  0  0  0
   60.2932  161.2686   -6.3089 H   0  0  0  0  0  0  0  0  0  0  0  0
   55.1740  158.9909   -5.6942 H   0  0  0  0  0  0  0  0  0  0  0  0
   53.4591  158.9039   -5.3698 H   0  0  0  0  0  0  0  0  0  0  0  0
   56.3451  159.4530   -3.8171 H   0  0  0  0  0  0  0  0  0  0  0  0
  1  4  1  0  0  0  0
  1 16  2  0  0  0  0
  1 18  1  0  0  0  0
  2 14  1  0  0  0  0
  2 17  2  0  0  0  0
  2 18  1  0  0  0  0
  3 10  1  0  0  0  0
  3 21  1  0  0  0  0
  3 22  2  0  0  0  0
  4  8  1  0  0  0  0
  5  6  1  0  0  0  0
  5 10  1  0  0  0  0
  6 10  1  0  0  0  0
  7  9  1  0  0  0  0
  7 18  1  0  0  0  0
  8 19  1  0  0  0  0
  9 19  1  0  0  0  0
 10 20  1  0  0  0  0
 11 15  1  0  0  0  0
 12 15  1  0  0  0  0
 13 14  1  0  0  0  0
 13 15  1  0  0  0  0
 14 21  1  0  0  0  0
 16 17  1  0  0  0  0
  4 23  1  0  0  0  0
  4 24  1  0  0  0  0
  5 25  1  0  0  0  0
  5 26  1  0  0  0  0
  6 27  1  0  0  0  0
  6 28  1  0  0  0  0
  7 29  1  0  0  0  0
  7 30  1  0  0  0  0
  8 31  1  0  0  0  0
  8 32  1  0  0  0  0
  9 33  1  0  0  0  0
  9 34  1  0  0  0  0
 11 35  1  0  0  0  0
 11 36  1  0  0  0  0
 11 37  1  0  0  0  0
 12 38  1  0  0  0  0
 12 39  1  0  0  0  0
 12 40  1  0  0  0  0
 13 41  1  0  0  0  0
 13 42  1  0  0  0  0
 14 43  1  0  0  0  0
 15 44  1  0  0  0  0
 19 45  1  0  0  0  0
 20 46  1  0  0  0  0
 20 47  1  0  0  0  0
 21 48  1  0  0  0  0
M  END
> <FRED Chemgauss4 score>
-6.266205

$$$$
C48630888	P72699270
  -OEChem-05122015083D

 26 26  0     1  0  0  0  0  0999 V2000
   54.3353  157.6010   -5.3026 C   0  0  0  0  0  0  0  0  0  0  0  0
   54.3378  155.6995   -6.1637 C   0  0  0  0  0  0  0  0  0  0  0  0
   56.1303  154.0029   -6.6052 C   0  0  0  0  0  0  0  0  0  0  0  0
   55.2199  160.0630   -2.4436 C   0  0  0  0  0  0  0  0  0  0  0  0
   54.6544  154.3917   -6.7599 C   0  0  0  0  0  0  0  0  0  0  0  0
   54.8530  158.9076   -4.7172 C   0  0  1  0  0  0  0  0  0  0  0  0
   54.3484  159.1184   -3.2688 C   0  0  1  0  0  0  0  0  0  0  0  0
   55.1754  156.6243   -5.7554 N   0  0  0  0  0  0  0  0  0  0  0  0
   53.0307  157.3387   -5.4050 N   0  0  0  0  0  0  0  0  0  0  0  0
   53.0597  156.1169   -5.9587 N   0  0  0  0  0  0  0  0  0  0  0  0
   56.3174  158.9548   -4.7939 N   0  0  0  0  0  0  0  0  0  0  0  0
   54.3318  157.8574   -2.5909 O   0  0  0  0  0  0  0  0  0  0  0  0
   56.7802  154.7743   -7.0321 H   0  0  0  0  0  0  0  0  0  0  0  0
   56.3495  153.0571   -7.1106 H   0  0  0  0  0  0  0  0  0  0  0  0
   56.3918  153.8908   -5.5475 H   0  0  0  0  0  0  0  0  0  0  0  0
   56.2630  159.7357   -2.4143 H   0  0  0  0  0  0  0  0  0  0  0  0
   54.8467  160.1439   -1.4167 H   0  0  0  0  0  0  0  0  0  0  0  0
   55.1925  161.0732   -2.8675 H   0  0  0  0  0  0  0  0  0  0  0  0
   54.0364  153.5852   -6.3156 H   0  0  0  0  0  0  0  0  0  0  0  0
   54.4023  154.3685   -7.8395 H   0  0  0  0  0  0  0  0  0  0  0  0
   54.4669  159.7312   -5.3326 H   0  0  0  0  0  0  0  0  0  0  0  0
   53.3202  159.4977   -3.2605 H   0  0  0  0  0  0  0  0  0  0  0  0
   52.1866  155.6445   -6.1617 H   0  0  0  0  0  0  0  0  0  0  0  0
   56.7923  159.5800   -4.1847 H   0  0  0  0  0  0  0  0  0  0  0  0
   56.7534  158.5227   -5.5755 H   0  0  0  0  0  0  0  0  0  0  0  0
   53.9569  158.0271   -1.7148 H   0  0  0  0  0  0  0  0  0  0  0  0
  1  6  1  0  0  0  0
  1  8  1  0  0  0  0
  1  9  2  0  0  0  0
  2  5  1  0  0  0  0
  2  8  2  0  0  0  0
  2 10  1  0  0  0  0
  3  5  1  0  0  0  0
  4  7  1  0  0  0  0
  6  7  1  0  0  0  0
  6 11  1  0  0  0  0
  7 12  1  0  0  0  0
  9 10  1  0  0  0  0
  3 13  1  0  0  0  0
  3 14  1  0  0  0  0
  3 15  1  0  0  0  0
  4 16  1  0  0  0  0
  4 17  1  0  0  0  0
  4 18  1  0  0  0  0
  5 19  1  0  0  0  0
  5 20  1  0  0  0  0
  6 21  1  0  0  0  0
  7 22  1  0  0  0  0
 10 23  1  0  0  0  0
 11 24  1  0  0  0  0
 11 25  1  0  0  0  0
 12 26  1  0  0  0  0
M  END
> <FRED Chemgauss4 score>
-6.266087

$$$$
C90493141	P141528232
  -OEChem-05122015083D

 48 49  0     1  0  0  0  0  0999 V2000
   55.1637  160.3701   -3.0630 C   0  0  0  0  0  0  0  0  0  0  0  0
   53.9272  155.6318   -5.8586 C   0  0  0  0  0  0  0  0  0  0  0  0
   55.9638  154.9709   -4.5188 C   0  0  0  0  0  0  0  0  0  0  0  0
   53.7847  156.9025   -5.0182 C   0  0  0  0  0  0  0  0  0  0  0  0
   55.8227  156.2403   -3.6758 C   0  0  0  0  0  0  0  0  0  0  0  0
   55.5586  162.7055   -3.8117 C   0  0  0  0  0  0  0  0  0  0  0  0
   57.3972  162.3845   -2.4040 C   0  0  0  0  0  0  0  0  0  0  0  0
   55.9976  161.2579   -3.9406 C   0  0  1  0  0  0  0  0  0  0  0  0
   55.3845  155.1587   -5.9263 C   0  0  0  0  0  0  0  0  0  0  0  0
   57.4332  161.2816   -3.4522 C   0  0  1  0  0  0  0  0  0  0  0  0
   54.3713  156.7371   -3.6077 C   0  0  0  0  0  0  0  0  0  0  0  0
   55.4946  153.8655   -6.7320 C   0  0  0  0  0  0  0  0  0  0  0  0
   60.6505  161.8309   -5.2561 C   0  0  0  0  0  0  0  0  0  0  0  0
   54.2928  158.0527   -2.8313 C   0  0  0  0  0  0  0  0  0  0  0  0
   59.7209  161.4396   -4.1582 C   0  0  0  0  0  0  0  0  0  0  0  0
   55.0367  159.0567   -3.5127 N   0  0  0  0  0  0  0  0  0  0  0  0
   58.3360  161.6693   -4.5365 N   0  0  0  0  0  0  0  0  0  0  0  0
   54.6629  160.8277   -2.0425 O   0  0  0  0  0  0  0  0  0  0  0  0
   56.3681  163.3071   -2.7889 O   0  0  0  0  0  0  0  0  0  0  0  0
   53.6040  155.7630   -2.8942 O   0  0  0  0  0  0  0  0  0  0  0  0
   53.2949  154.8402   -5.4369 H   0  0  0  0  0  0  0  0  0  0  0  0
   53.5519  155.8276   -6.8703 H   0  0  0  0  0  0  0  0  0  0  0  0
   57.0247  154.7011   -4.5854 H   0  0  0  0  0  0  0  0  0  0  0  0
   55.4589  154.1380   -4.0131 H   0  0  0  0  0  0  0  0  0  0  0  0
   54.2840  157.7310   -5.5365 H   0  0  0  0  0  0  0  0  0  0  0  0
   52.7183  157.1528   -4.9548 H   0  0  0  0  0  0  0  0  0  0  0  0
   56.1961  156.0247   -2.6670 H   0  0  0  0  0  0  0  0  0  0  0  0
   56.4655  157.0225   -4.0994 H   0  0  0  0  0  0  0  0  0  0  0  0
   55.7371  163.2623   -4.7382 H   0  0  0  0  0  0  0  0  0  0  0  0
   54.5042  162.8198   -3.5402 H   0  0  0  0  0  0  0  0  0  0  0  0
   57.1260  161.9801   -1.4221 H   0  0  0  0  0  0  0  0  0  0  0  0
   58.3451  162.9206   -2.2892 H   0  0  0  0  0  0  0  0  0  0  0  0
   55.8847  160.8847   -4.9627 H   0  0  0  0  0  0  0  0  0  0  0  0
   55.9739  155.9284   -6.4426 H   0  0  0  0  0  0  0  0  0  0  0  0
   57.7727  160.3383   -3.0322 H   0  0  0  0  0  0  0  0  0  0  0  0
   54.9199  153.0786   -6.2466 H   0  0  0  0  0  0  0  0  0  0  0  0
   56.5371  153.5585   -6.7958 H   0  0  0  0  0  0  0  0  0  0  0  0
   55.1066  154.0230   -7.7369 H   0  0  0  0  0  0  0  0  0  0  0  0
   60.4539  161.2464   -6.1614 H   0  0  0  0  0  0  0  0  0  0  0  0
   60.5548  162.8974   -5.4869 H   0  0  0  0  0  0  0  0  0  0  0  0
   61.6866  161.6421   -4.9504 H   0  0  0  0  0  0  0  0  0  0  0  0
   54.7133  157.8978   -1.8474 H   0  0  0  0  0  0  0  0  0  0  0  0
   53.2578  158.3561   -2.7621 H   0  0  0  0  0  0  0  0  0  0  0  0
   59.9227  162.0269   -3.2573 H   0  0  0  0  0  0  0  0  0  0  0  0
   59.8291  160.3777   -3.9182 H   0  0  0  0  0  0  0  0  0  0  0  0
   55.5075  158.7985   -4.3868 H   0  0  0  0  0  0  0  0  0  0  0  0
   58.1127  161.1185   -5.3620 H   0  0  0  0  0  0  0  0  0  0  0  0
   53.6717  154.9408   -3.4010 H   0  0  0  0  0  0  0  0  0  0  0  0
  1  8  1  0  0  0  0
  1 16  1  0  0  0  0
  1 18  2  0  0  0  0
  2  4  1  0  0  0  0
  2  9  1  0  0  0  0
  3  5  1  0  0  0  0
  3  9  1  0  0  0  0
  4 11  1  0  0  0  0
  5 11  1  0  0  0  0
  6  8  1  0  0  0  0
  6 19  1  0  0  0  0
  7 10  1  0  0  0  0
  7 19  1  0  0  0  0
  8 10  1  0  0  0  0
  9 12  1  0  0  0  0
 10 17  1  0  0  0  0
 11 14  1  0  0  0  0
 11 20  1  0  0  0  0
 13 15  1  0  0  0  0
 14 16  1  0  0  0  0
 15 17  1  0  0  0  0
  2 21  1  0  0  0  0
  2 22  1  0  0  0  0
  3 23  1  0  0  0  0
  3 24  1  0  0  0  0
  4 25  1  0  0  0  0
  4 26  1  0  0  0  0
  5 27  1  0  0  0  0
  5 28  1  0  0  0  0
  6 29  1  0  0  0  0
  6 30  1  0  0  0  0
  7 31  1  0  0  0  0
  7 32  1  0  0  0  0
  8 33  1  0  0  0  0
  9 34  1  0  0  0  0
 10 35  1  0  0  0  0
 12 36  1  0  0  0  0
 12 37  1  0  0  0  0
 12 38  1  0  0  0  0
 13 39  1  0  0  0  0
 13 40  1  0  0  0  0
 13 41  1  0  0  0  0
 14 42  1  0  0  0  0
 14 43  1  0  0  0  0
 15 44  1  0  0  0  0
 15 45  1  0  0  0  0
 16 46  1  0  0  0  0
 17 47  1  0  0  0  0
 20 48  1  0  0  0  0
M  END
> <FRED Chemgauss4 score>
-6.265846

$$$$
C83747622	P131020498
  -OEChem-05122015083D

 25 25  0     0  0  0  0  0  0999 V2000
   56.0403  156.5361   -5.6643 C   0  0  0  0  0  0  0  0  0  0  0  0
   53.5545  156.1275   -3.2358 C   0  0  0  0  0  0  0  0  0  0  0  0
   56.2288  156.1788   -7.1227 C   0  0  0  0  0  0  0  0  0  0  0  0
   55.7021  153.4314   -5.8659 C   0  0  0  0  0  0  0  0  0  0  0  0
   56.3951  153.7530   -7.1913 C   0  0  0  0  0  0  0  0  0  0  0  0
   54.6455  154.4567   -5.4654 C   0  0  0  0  0  0  0  0  0  0  0  0
   55.0292  155.9229   -3.4956 C   0  0  0  0  0  0  0  0  0  0  0  0
   57.1191  155.0254   -7.2125 N   0  0  0  0  0  0  0  0  0  0  0  0
   55.2479  155.6705   -4.9134 N   0  0  0  0  0  0  0  0  0  0  0  0
   52.9055  156.6888   -4.3145 N   0  0  0  0  0  0  0  0  0  0  0  0
   56.5764  157.5513   -5.2125 O   0  0  0  0  0  0  0  0  0  0  0  0
   52.9879  155.7905   -2.1997 O   0  0  0  0  0  0  0  0  0  0  0  0
   55.2733  156.0447   -7.6395 H   0  0  0  0  0  0  0  0  0  0  0  0
   56.7193  157.0348   -7.6022 H   0  0  0  0  0  0  0  0  0  0  0  0
   55.2145  152.4546   -5.9736 H   0  0  0  0  0  0  0  0  0  0  0  0
   56.4498  153.3264   -5.0697 H   0  0  0  0  0  0  0  0  0  0  0  0
   57.1201  152.9551   -7.3917 H   0  0  0  0  0  0  0  0  0  0  0  0
   55.6697  153.7184   -8.0139 H   0  0  0  0  0  0  0  0  0  0  0  0
   54.0150  154.7289   -6.3186 H   0  0  0  0  0  0  0  0  0  0  0  0
   53.9864  154.0203   -4.7057 H   0  0  0  0  0  0  0  0  0  0  0  0
   55.4087  155.0637   -2.9361 H   0  0  0  0  0  0  0  0  0  0  0  0
   55.5789  156.8248   -3.2129 H   0  0  0  0  0  0  0  0  0  0  0  0
   57.6250  155.0790   -8.0974 H   0  0  0  0  0  0  0  0  0  0  0  0
   53.4097  156.9186   -5.1644 H   0  0  0  0  0  0  0  0  0  0  0  0
   51.9110  156.8916   -4.3055 H   0  0  0  0  0  0  0  0  0  0  0  0
  1  3  1  0  0  0  0
  1  9  1  0  0  0  0
  1 11  2  0  0  0  0
  2  7  1  0  0  0  0
  2 10  1  0  0  0  0
  2 12  2  0  0  0  0
  3  8  1  0  0  0  0
  4  5  1  0  0  0  0
  4  6  1  0  0  0  0
  5  8  1  0  0  0  0
  6  9  1  0  0  0  0
  7  9  1  0  0  0  0
  3 13  1  0  0  0  0
  3 14  1  0  0  0  0
  4 15  1  0  0  0  0
  4 16  1  0  0  0  0
  5 17  1  0  0  0  0
  5 18  1  0  0  0  0
  6 19  1  0  0  0  0
  6 20  1  0  0  0  0
  7 21  1  0  0  0  0
  7 22  1  0  0  0  0
  8 23  1  0  0  0  0
 10 24  1  0  0  0  0
 10 25  1  0  0  0  0
M  END
> <FRED Chemgauss4 score>
-6.265694

$$$$
C72210807	P112191516
  -OEChem-05122015083D

 17 17  0     0  0  0  0  0  0999 V2000
   56.3838  155.9238   -4.3357 C   0  0  0  0  0  0  0  0  0  0  0  0
   56.8056  155.3742   -6.5792 C   0  0  0  0  0  0  0  0  0  0  0  0
   54.5477  155.4455   -5.7923 C   0  0  0  0  0  0  0  0  0  0  0  0
   55.0158  155.7955   -4.5294 C   0  0  0  0  0  0  0  0  0  0  0  0
   55.4485  155.2315   -6.8312 C   0  0  0  0  0  0  0  0  0  0  0  0
   57.2292  155.7121   -5.3536 N   0  3  0  0  0  0  0  0  0  0  0  0
   53.1570  155.3072   -6.0134 N   0  0  0  0  0  0  0  0  0  0  0  0
   54.0339  157.5275   -2.9576 O   0  5  0  0  0  0  0  0  0  0  0  0
   52.6106  155.6333   -3.6313 O   0  0  0  0  0  0  0  0  0  0  0  0
   54.5030  155.2518   -2.1033 O   0  0  0  0  0  0  0  0  0  0  0  0
   53.9394  156.0775   -3.1814 S   0  0  0  0  0  0  0  0  0  0  0  0
   54.9380  154.7971   -8.4187 Cl  0  0  0  0  0  0  0  0  0  0  0  0
   56.8448  156.1908   -3.3943 H   0  0  0  0  0  0  0  0  0  0  0  0
   57.5844  155.2307   -7.3163 H   0  0  0  0  0  0  0  0  0  0  0  0
   58.2306  155.8106   -5.1890 H   0  0  0  0  0  0  0  0  0  0  0  0
   52.5318  155.4176   -5.2437 H   0  0  0  0  0  0  0  0  0  0  0  0
   52.8377  155.0100   -6.9109 H   0  0  0  0  0  0  0  0  0  0  0  0
  1  4  1  0  0  0  0
  1  6  2  0  0  0  0
  2  5  2  0  0  0  0
  2  6  1  0  0  0  0
  3  4  2  0  0  0  0
  3  5  1  0  0  0  0
  3  7  1  0  0  0  0
  4 11  1  0  0  0  0
  5 12  1  0  0  0  0
  8 11  1  0  0  0  0
  9 11  2  0  0  0  0
 10 11  2  0  0  0  0
  1 13  1  0  0  0  0
  2 14  1  0  0  0  0
  6 15  1  0  0  0  0
  7 16  1  0  0  0  0
  7 17  1  0  0  0  0
M  CHG  2   6   1   8  -1
M  END
> <FRED Chemgauss4 score>
-6.262285

$$$$
C87061796	P136265586
  -OEChem-05122015083D

 47 48  0     1  0  0  0  0  0999 V2000
   57.3241  162.6185   -3.8758 C   0  0  0  0  0  0  0  0  0  0  0  0
   59.4817  161.0946   -1.2387 C   0  0  0  0  0  0  0  0  0  0  0  0
   59.8360  161.6389   -2.6166 C   0  0  0  0  0  0  0  0  0  0  0  0
   57.9900  161.0277   -0.9252 C   0  0  0  0  0  0  0  0  0  0  0  0
   59.1702  160.9374   -3.8050 C   0  0  0  0  0  0  0  0  0  0  0  0
   54.4674  156.2033   -6.3296 C   0  0  0  0  0  0  0  0  0  0  0  0
   55.6537  154.9019   -4.5190 C   0  0  0  0  0  0  0  0  0  0  0  0
   57.2838  159.9228   -1.7039 C   0  0  0  0  0  0  0  0  0  0  0  0
   54.6949  157.4996   -5.5492 C   0  0  0  0  0  0  0  0  0  0  0  0
   55.8814  156.1968   -3.7358 C   0  0  0  0  0  0  0  0  0  0  0  0
   57.6624  161.1825   -3.9814 C   0  0  1  0  0  0  0  0  0  0  0  0
   55.5525  155.1627   -6.0269 C   0  0  0  0  0  0  0  0  0  0  0  0
   56.7370  160.3325   -3.0796 C   0  0  1  0  0  0  0  0  0  0  0  0
   54.8114  157.2563   -4.0366 C   0  0  0  0  0  0  0  0  0  0  0  0
   55.2790  153.8633   -6.7819 C   0  0  0  0  0  0  0  0  0  0  0  0
   55.1290  158.5598   -3.3017 C   0  0  0  0  0  0  0  0  0  0  0  0
   57.0588  163.7449   -3.7929 N   0  0  0  0  0  0  0  0  0  0  0  0
   56.3666  159.0847   -3.7693 N   0  0  0  0  0  0  0  0  0  0  0  0
   53.5589  156.7716   -3.5437 O   0  0  0  0  0  0  0  0  0  0  0  0
   59.8694  160.0574   -1.1839 H   0  0  0  0  0  0  0  0  0  0  0  0
   60.0292  161.6382   -0.4427 H   0  0  0  0  0  0  0  0  0  0  0  0
   59.5302  162.6911   -2.6568 H   0  0  0  0  0  0  0  0  0  0  0  0
   60.9216  161.6553   -2.7487 H   0  0  0  0  0  0  0  0  0  0  0  0
   57.8329  160.8996    0.1394 H   0  0  0  0  0  0  0  0  0  0  0  0
   57.5396  161.9744   -1.2087 H   0  0  0  0  0  0  0  0  0  0  0  0
   59.6976  161.2174   -4.7099 H   0  0  0  0  0  0  0  0  0  0  0  0
   59.3300  159.8726   -3.6678 H   0  0  0  0  0  0  0  0  0  0  0  0
   53.4782  155.7962   -6.0843 H   0  0  0  0  0  0  0  0  0  0  0  0
   54.4566  156.4286   -7.4029 H   0  0  0  0  0  0  0  0  0  0  0  0
   56.4797  154.2099   -4.3151 H   0  0  0  0  0  0  0  0  0  0  0  0
   54.7387  154.4134   -4.1603 H   0  0  0  0  0  0  0  0  0  0  0  0
   57.9965  159.1090   -1.8422 H   0  0  0  0  0  0  0  0  0  0  0  0
   56.4808  159.5188   -1.0906 H   0  0  0  0  0  0  0  0  0  0  0  0
   55.6060  157.9851   -5.9216 H   0  0  0  0  0  0  0  0  0  0  0  0
   53.8566  158.1760   -5.7577 H   0  0  0  0  0  0  0  0  0  0  0  0
   55.8827  155.9541   -2.6659 H   0  0  0  0  0  0  0  0  0  0  0  0
   56.8761  156.5907   -3.9803 H   0  0  0  0  0  0  0  0  0  0  0  0
   57.4336  160.8993   -5.0130 H   0  0  0  0  0  0  0  0  0  0  0  0
   56.5166  155.5577   -6.3746 H   0  0  0  0  0  0  0  0  0  0  0  0
   55.8392  160.8583   -2.9148 H   0  0  0  0  0  0  0  0  0  0  0  0
   54.3274  153.4432   -6.4604 H   0  0  0  0  0  0  0  0  0  0  0  0
   56.0722  153.1455   -6.5801 H   0  0  0  0  0  0  0  0  0  0  0  0
   55.2391  154.0599   -7.8520 H   0  0  0  0  0  0  0  0  0  0  0  0
   55.2032  158.3497   -2.2438 H   0  0  0  0  0  0  0  0  0  0  0  0
   54.3394  159.2717   -3.4964 H   0  0  0  0  0  0  0  0  0  0  0  0
   56.3234  159.2868   -4.7794 H   0  0  0  0  0  0  0  0  0  0  0  0
   52.9064  157.4597   -3.7393 H   0  0  0  0  0  0  0  0  0  0  0  0
  1 11  1  0  0  0  0
  1 17  3  0  0  0  0
  2  3  1  0  0  0  0
  2  4  1  0  0  0  0
  3  5  1  0  0  0  0
  4  8  1  0  0  0  0
  5 11  1  0  0  0  0
  6  9  1  0  0  0  0
  6 12  1  0  0  0  0
  7 10  1  0  0  0  0
  7 12  1  0  0  0  0
  8 13  1  0  0  0  0
  9 14  1  0  0  0  0
 10 14  1  0  0  0  0
 11 13  1  0  0  0  0
 12 15  1  0  0  0  0
 13 18  1  0  0  0  0
 14 16  1  0  0  0  0
 14 19  1  0  0  0  0
 16 18  1  0  0  0  0
  2 20  1  0  0  0  0
  2 21  1  0  0  0  0
  3 22  1  0  0  0  0
  3 23  1  0  0  0  0
  4 24  1  0  0  0  0
  4 25  1  0  0  0  0
  5 26  1  0  0  0  0
  5 27  1  0  0  0  0
  6 28  1  0  0  0  0
  6 29  1  0  0  0  0
  7 30  1  0  0  0  0
  7 31  1  0  0  0  0
  8 32  1  0  0  0  0
  8 33  1  0  0  0  0
  9 34  1  0  0  0  0
  9 35  1  0  0  0  0
 10 36  1  0  0  0  0
 10 37  1  0  0  0  0
 11 38  1  0  0  0  0
 12 39  1  0  0  0  0
 13 40  1  0  0  0  0
 15 41  1  0  0  0  0
 15 42  1  0  0  0  0
 15 43  1  0  0  0  0
 16 44  1  0  0  0  0
 16 45  1  0  0  0  0
 18 46  1  0  0  0  0
 19 47  1  0  0  0  0
M  END
> <FRED Chemgauss4 score>
-6.262014

$$$$
C86618100	P135623818
  -OEChem-05122015083D

 30 30  0     1  0  0  0  0  0999 V2000
   58.3053  155.6773   -6.2319 C   0  0  0  0  0  0  0  0  0  0  0  0
   58.5243  157.1463   -5.9770 C   0  0  0  0  0  0  0  0  0  0  0  0
   56.8992  155.2443   -5.9050 C   0  0  0  0  0  0  0  0  0  0  0  0
   57.0984  157.6425   -5.7724 C   0  0  0  0  0  0  0  0  0  0  0  0
   56.3722  156.4573   -5.1415 C   0  0  1  0  0  0  0  0  0  0  0  0
   54.3052  155.6715   -4.2644 C   0  0  0  0  0  0  0  0  0  0  0  0
   54.4802  156.3045   -6.5755 C   0  0  0  0  0  0  0  0  0  0  0  0
   54.3064  156.3003   -2.8830 C   0  0  0  0  0  0  0  0  0  0  0  0
   53.1128  156.9297   -6.7824 C   0  0  0  0  0  0  0  0  0  0  0  0
   54.9440  156.5784   -5.2164 N   0  0  0  0  0  0  0  0  0  0  0  0
   59.1710  154.9218   -6.6548 O   0  0  0  0  0  0  0  0  0  0  0  0
   53.6525  155.4305   -1.9677 O   0  0  0  0  0  0  0  0  0  0  0  0
   52.1863  156.3508   -5.8722 O   0  0  0  0  0  0  0  0  0  0  0  0
   59.1400  157.3055   -5.0894 H   0  0  0  0  0  0  0  0  0  0  0  0
   58.9888  157.5994   -6.8570 H   0  0  0  0  0  0  0  0  0  0  0  0
   56.3320  155.0197   -6.8102 H   0  0  0  0  0  0  0  0  0  0  0  0
   56.9477  154.3646   -5.2579 H   0  0  0  0  0  0  0  0  0  0  0  0
   57.0982  158.4849   -5.0722 H   0  0  0  0  0  0  0  0  0  0  0  0
   56.6442  157.9858   -6.7046 H   0  0  0  0  0  0  0  0  0  0  0  0
   56.6530  156.3749   -4.0674 H   0  0  0  0  0  0  0  0  0  0  0  0
   54.8552  154.7251   -4.2701 H   0  0  0  0  0  0  0  0  0  0  0  0
   53.2794  155.4917   -4.6001 H   0  0  0  0  0  0  0  0  0  0  0  0
   54.4455  155.2192   -6.7139 H   0  0  0  0  0  0  0  0  0  0  0  0
   55.2043  156.7319   -7.2757 H   0  0  0  0  0  0  0  0  0  0  0  0
   53.7566  157.2464   -2.9014 H   0  0  0  0  0  0  0  0  0  0  0  0
   55.3246  156.4860   -2.5261 H   0  0  0  0  0  0  0  0  0  0  0  0
   52.7587  156.7287   -7.7983 H   0  0  0  0  0  0  0  0  0  0  0  0
   53.1363  158.0122   -6.6202 H   0  0  0  0  0  0  0  0  0  0  0  0
   53.6753  155.8680   -1.1015 H   0  0  0  0  0  0  0  0  0  0  0  0
   51.3295  156.7762   -6.0372 H   0  0  0  0  0  0  0  0  0  0  0  0
  1  2  1  0  0  0  0
  1  3  1  0  0  0  0
  1 11  2  0  0  0  0
  2  4  1  0  0  0  0
  3  5  1  0  0  0  0
  4  5  1  0  0  0  0
  5 10  1  0  0  0  0
  6  8  1  0  0  0  0
  6 10  1  0  0  0  0
  7  9  1  0  0  0  0
  7 10  1  0  0  0  0
  8 12  1  0  0  0  0
  9 13  1  0  0  0  0
  2 14  1  0  0  0  0
  2 15  1  0  0  0  0
  3 16  1  0  0  0  0
  3 17  1  0  0  0  0
  4 18  1  0  0  0  0
  4 19  1  0  0  0  0
  5 20  1  0  0  0  0
  6 21  1  0  0  0  0
  6 22  1  0  0  0  0
  7 23  1  0  0  0  0
  7 24  1  0  0  0  0
  8 25  1  0  0  0  0
  8 26  1  0  0  0  0
  9 27  1  0  0  0  0
  9 28  1  0  0  0  0
 12 29  1  0  0  0  0
 13 30  1  0  0  0  0
M  END
> <FRED Chemgauss4 score>
-6.260924

$$$$
C72187999	P112132748
  -OEChem-05122015083D

 23 23  0     1  0  0  0  0  0999 V2000
   56.3809  156.1770   -5.4951 C   0  0  0  0  0  0  0  0  0  0  0  0
   55.3728  154.3684   -6.7188 C   0  0  0  0  0  0  0  0  0  0  0  0
   57.6151  155.6384   -5.8215 C   0  0  0  0  0  0  0  0  0  0  0  0
   56.6521  153.9109   -6.9906 C   0  0  0  0  0  0  0  0  0  0  0  0
   55.2433  155.5238   -5.9562 C   0  0  0  0  0  0  0  0  0  0  0  0
   53.8717  156.0671   -5.6292 C   0  0  0  0  0  0  0  0  0  0  0  0
   53.8688  156.1967   -3.0774 C   0  0  0  0  0  0  0  0  0  0  0  0
   53.3186  155.4893   -4.3190 C   0  0  1  0  0  0  0  0  0  0  0  0
   57.7806  154.5182   -6.5600 N   0  0  0  0  0  0  0  0  0  0  0  0
   53.3246  155.6289   -1.8651 N   0  0  0  0  0  0  0  0  0  0  0  0
   51.8948  155.5953   -4.3247 O   0  0  0  0  0  0  0  0  0  0  0  0
   56.3137  157.0797   -4.8973 H   0  0  0  0  0  0  0  0  0  0  0  0
   54.5046  153.8369   -7.0930 H   0  0  0  0  0  0  0  0  0  0  0  0
   58.5330  156.1093   -5.4851 H   0  0  0  0  0  0  0  0  0  0  0  0
   56.8069  153.0141   -7.5812 H   0  0  0  0  0  0  0  0  0  0  0  0
   53.9314  157.1616   -5.5742 H   0  0  0  0  0  0  0  0  0  0  0  0
   53.1988  155.8313   -6.4635 H   0  0  0  0  0  0  0  0  0  0  0  0
   53.6055  157.2594   -3.1054 H   0  0  0  0  0  0  0  0  0  0  0  0
   54.9609  156.1223   -3.0511 H   0  0  0  0  0  0  0  0  0  0  0  0
   53.5635  154.4227   -4.2458 H   0  0  0  0  0  0  0  0  0  0  0  0
   52.3641  155.3360   -1.8561 H   0  0  0  0  0  0  0  0  0  0  0  0
   53.8430  155.7247   -1.0103 H   0  0  0  0  0  0  0  0  0  0  0  0
   51.5856  155.0862   -5.0891 H   0  0  0  0  0  0  0  0  0  0  0  0
  1  3  1  0  0  0  0
  1  5  2  0  0  0  0
  2  4  2  0  0  0  0
  2  5  1  0  0  0  0
  3  9  2  0  0  0  0
  4  9  1  0  0  0  0
  5  6  1  0  0  0  0
  6  8  1  0  0  0  0
  7  8  1  0  0  0  0
  7 10  1  0  0  0  0
  8 11  1  0  0  0  0
  1 12  1  0  0  0  0
  2 13  1  0  0  0  0
  3 14  1  0  0  0  0
  4 15  1  0  0  0  0
  6 16  1  0  0  0  0
  6 17  1  0  0  0  0
  7 18  1  0  0  0  0
  7 19  1  0  0  0  0
  8 20  1  0  0  0  0
 10 21  1  0  0  0  0
 10 22  1  0  0  0  0
 11 23  1  0  0  0  0
M  END
> <FRED Chemgauss4 score>
-6.257961

$$$$
C97643416	P154810398
  -OEChem-05122015083D

 42 43  0     1  0  0  0  0  0999 V2000
   55.5658  158.6546   -4.6193 C   0  0  0  0  0  0  0  0  0  0  0  0
   53.8872  157.3596   -3.5414 C   0  0  0  0  0  0  0  0  0  0  0  0
   54.9657  158.9967   -2.3436 C   0  0  0  0  0  0  0  0  0  0  0  0
   54.6194  157.6381   -4.6843 C   0  0  0  0  0  0  0  0  0  0  0  0
   55.7486  159.3518   -3.4302 C   0  0  0  0  0  0  0  0  0  0  0  0
   56.8744  153.3754   -7.5359 C   0  0  0  0  0  0  0  0  0  0  0  0
   55.5795  152.5738   -7.5141 C   0  0  0  0  0  0  0  0  0  0  0  0
   57.1123  154.0352   -6.1821 C   0  0  0  0  0  0  0  0  0  0  0  0
   54.4234  153.4263   -7.0124 C   0  0  0  0  0  0  0  0  0  0  0  0
   55.8851  154.8071   -5.6898 C   0  0  1  0  0  0  0  0  0  0  0  0
   57.0303  162.6803   -2.9269 C   0  0  0  0  0  0  0  0  0  0  0  0
   55.6728  156.1314   -6.4201 C   0  0  0  0  0  0  0  0  0  0  0  0
   56.3873  161.4074   -2.4192 C   0  0  0  0  0  0  0  0  0  0  0  0
   54.3959  156.8595   -5.9650 C   0  0  2  0  0  0  0  0  0  0  0  0
   54.0365  158.0150   -2.3685 N   0  0  0  0  0  0  0  0  0  0  0  0
   52.4766  157.8871   -6.8173 N   0  0  0  0  0  0  0  0  0  0  0  0
   53.8857  157.7238   -7.0059 N   0  0  0  0  0  0  0  0  0  0  0  0
   54.7104  153.9904   -5.7341 O   0  0  0  0  0  0  0  0  0  0  0  0
   56.6639  160.3478   -3.3374 O   0  0  0  0  0  0  0  0  0  0  0  0
   56.1620  158.9053   -5.4930 H   0  0  0  0  0  0  0  0  0  0  0  0
   53.1344  156.5773   -3.5323 H   0  0  0  0  0  0  0  0  0  0  0  0
   55.0651  159.5075   -1.3908 H   0  0  0  0  0  0  0  0  0  0  0  0
   57.7129  152.7089   -7.7692 H   0  0  0  0  0  0  0  0  0  0  0  0
   56.8351  154.1345   -8.3238 H   0  0  0  0  0  0  0  0  0  0  0  0
   55.3597  152.2365   -8.5354 H   0  0  0  0  0  0  0  0  0  0  0  0
   55.6943  151.6807   -6.8895 H   0  0  0  0  0  0  0  0  0  0  0  0
   57.4105  153.2741   -5.4417 H   0  0  0  0  0  0  0  0  0  0  0  0
   57.9668  154.7277   -6.2815 H   0  0  0  0  0  0  0  0  0  0  0  0
   54.2420  154.2545   -7.7087 H   0  0  0  0  0  0  0  0  0  0  0  0
   53.4940  152.8428   -6.9526 H   0  0  0  0  0  0  0  0  0  0  0  0
   56.0563  155.0637   -4.5911 H   0  0  0  0  0  0  0  0  0  0  0  0
   58.1145  162.5639   -3.0091 H   0  0  0  0  0  0  0  0  0  0  0  0
   56.6283  162.9508   -3.9089 H   0  0  0  0  0  0  0  0  0  0  0  0
   56.8148  163.5166   -2.2536 H   0  0  0  0  0  0  0  0  0  0  0  0
   56.5561  156.7642   -6.2644 H   0  0  0  0  0  0  0  0  0  0  0  0
   55.6163  155.9273   -7.4974 H   0  0  0  0  0  0  0  0  0  0  0  0
   55.3031  161.5305   -2.3393 H   0  0  0  0  0  0  0  0  0  0  0  0
   56.7907  161.1382   -1.4384 H   0  0  0  0  0  0  0  0  0  0  0  0
   53.6112  156.1116   -5.7959 H   0  0  0  0  0  0  0  0  0  0  0  0
   52.1893  157.3915   -5.9738 H   0  0  0  0  0  0  0  0  0  0  0  0
   52.2736  158.8709   -6.6449 H   0  0  0  0  0  0  0  0  0  0  0  0
   54.0471  157.3015   -7.9235 H   0  0  0  0  0  0  0  0  0  0  0  0
  1  4  2  0  0  0  0
  1  5  1  0  0  0  0
  2  4  1  0  0  0  0
  2 15  2  0  0  0  0
  3  5  2  0  0  0  0
  3 15  1  0  0  0  0
  4 14  1  0  0  0  0
  5 19  1  0  0  0  0
  6  7  1  0  0  0  0
  6  8  1  0  0  0  0
  7  9  1  0  0  0  0
  8 10  1  0  0  0  0
  9 18  1  0  0  0  0
 10 12  1  0  0  0  0
 10 18  1  0  0  0  0
 11 13  1  0  0  0  0
 12 14  1  0  0  0  0
 13 19  1  0  0  0  0
 14 17  1  0  0  0  0
 16 17  1  0  0  0  0
  1 20  1  0  0  0  0
  2 21  1  0  0  0  0
  3 22  1  0  0  0  0
  6 23  1  0  0  0  0
  6 24  1  0  0  0  0
  7 25  1  0  0  0  0
  7 26  1  0  0  0  0
  8 27  1  0  0  0  0
  8 28  1  0  0  0  0
  9 29  1  0  0  0  0
  9 30  1  0  0  0  0
 10 31  1  0  0  0  0
 11 32  1  0  0  0  0
 11 33  1  0  0  0  0
 11 34  1  0  0  0  0
 12 35  1  0  0  0  0
 12 36  1  0  0  0  0
 13 37  1  0  0  0  0
 13 38  1  0  0  0  0
 14 39  1  0  0  0  0
 16 40  1  0  0  0  0
 16 41  1  0  0  0  0
 17 42  1  0  0  0  0
M  END
> <FRED Chemgauss4 score>
-6.257467

$$$$
C54793127	P82471189
  -OEChem-05122015083D

 21 21  0     0  0  0  0  0  0999 V2000
   56.8814  160.1933   -2.2236 C   0  0  0  0  0  0  0  0  0  0  0  0
   55.6399  159.7401   -1.8265 C   0  0  0  0  0  0  0  0  0  0  0  0
   57.5587  159.3799   -3.1090 C   0  0  0  0  0  0  0  0  0  0  0  0
   55.8508  157.8798   -3.1156 C   0  0  0  0  0  0  0  0  0  0  0  0
   53.7962  156.4298   -3.3185 C   0  0  0  0  0  0  0  0  0  0  0  0
   58.9093  159.7864   -3.5948 C   0  0  0  0  0  0  0  0  0  0  0  0
   55.2790  156.5947   -3.6102 C   0  0  0  0  0  0  0  0  0  0  0  0
   55.0919  158.5838   -2.2543 N   0  0  0  0  0  0  0  0  0  0  0  0
   57.0715  158.2121   -3.5772 N   0  0  0  0  0  0  0  0  0  0  0  0
   52.9973  156.8638   -4.3552 N   0  0  0  0  0  0  0  0  0  0  0  0
   53.3564  155.9634   -2.2713 O   0  0  0  0  0  0  0  0  0  0  0  0
   58.7724  160.8290   -4.5523 O   0  0  0  0  0  0  0  0  0  0  0  0
   57.2882  161.1273   -1.8582 H   0  0  0  0  0  0  0  0  0  0  0  0
   55.0327  160.3115   -1.1320 H   0  0  0  0  0  0  0  0  0  0  0  0
   59.5395  160.1471   -2.7705 H   0  0  0  0  0  0  0  0  0  0  0  0
   59.4324  158.9422   -4.0641 H   0  0  0  0  0  0  0  0  0  0  0  0
   55.4223  156.5025   -4.6994 H   0  0  0  0  0  0  0  0  0  0  0  0
   55.8135  155.7402   -3.1636 H   0  0  0  0  0  0  0  0  0  0  0  0
   53.4270  157.2416   -5.1935 H   0  0  0  0  0  0  0  0  0  0  0  0
   51.9861  156.8108   -4.2920 H   0  0  0  0  0  0  0  0  0  0  0  0
   59.6692  161.0625   -4.8410 H   0  0  0  0  0  0  0  0  0  0  0  0
  1  2  1  0  0  0  0
  1  3  2  0  0  0  0
  2  8  2  0  0  0  0
  3  6  1  0  0  0  0
  3  9  1  0  0  0  0
  4  7  1  0  0  0  0
  4  8  1  0  0  0  0
  4  9  2  0  0  0  0
  5  7  1  0  0  0  0
  5 10  1  0  0  0  0
  5 11  2  0  0  0  0
  6 12  1  0  0  0  0
  1 13  1  0  0  0  0
  2 14  1  0  0  0  0
  6 15  1  0  0  0  0
  6 16  1  0  0  0  0
  7 17  1  0  0  0  0
  7 18  1  0  0  0  0
 10 19  1  0  0  0  0
 10 20  1  0  0  0  0
 12 21  1  0  0  0  0
M  END
> <FRED Chemgauss4 score>
-6.252336

$$$$
C03830678	P56795441
  -OEChem-05122015083D

 24 24  0     1  0  0  0  0  0999 V2000
   53.7819  155.7866   -5.8305 C   0  0  1  0  0  0  0  0  0  0  0  0
   53.8338  157.3188   -5.8285 C   0  0  2  0  0  0  0  0  0  0  0  0
   53.1384  155.2404   -4.5544 C   0  0  1  0  0  0  0  0  0  0  0  0
   54.4715  157.8153   -4.5220 C   0  0  1  0  0  0  0  0  0  0  0  0
   53.8332  155.8458   -3.3326 C   0  0  1  0  0  0  0  0  0  0  0  0
   54.4482  159.3330   -4.3859 C   0  0  0  0  0  0  0  0  0  0  0  0
   53.7801  157.2740   -3.3863 O   0  0  0  0  0  0  0  0  0  0  0  0
   53.0941  155.3236   -6.9860 O   0  0  0  0  0  0  0  0  0  0  0  0
   52.5101  157.8359   -5.9639 O   0  0  0  0  0  0  0  0  0  0  0  0
   51.7515  155.5833   -4.5311 O   0  0  0  0  0  0  0  0  0  0  0  0
   53.1900  155.3626   -2.1572 O   0  0  0  0  0  0  0  0  0  0  0  0
   54.7486  159.9048   -5.6465 O   0  0  0  0  0  0  0  0  0  0  0  0
   54.8103  155.4087   -5.8938 H   0  0  0  0  0  0  0  0  0  0  0  0
   54.4010  157.6672   -6.6995 H   0  0  0  0  0  0  0  0  0  0  0  0
   53.1855  154.1459   -4.5344 H   0  0  0  0  0  0  0  0  0  0  0  0
   55.5173  157.4845   -4.4769 H   0  0  0  0  0  0  0  0  0  0  0  0
   54.8816  155.5245   -3.2953 H   0  0  0  0  0  0  0  0  0  0  0  0
   55.1946  159.6544   -3.6586 H   0  0  0  0  0  0  0  0  0  0  0  0
   53.4594  159.6647   -4.0675 H   0  0  0  0  0  0  0  0  0  0  0  0
   53.5894  155.6490   -7.7548 H   0  0  0  0  0  0  0  0  0  0  0  0
   52.5914  158.8016   -5.9577 H   0  0  0  0  0  0  0  0  0  0  0  0
   51.3574  155.1786   -5.3181 H   0  0  0  0  0  0  0  0  0  0  0  0
   53.6519  155.7631   -1.4041 H   0  0  0  0  0  0  0  0  0  0  0  0
   54.7277  160.8703   -5.5338 H   0  0  0  0  0  0  0  0  0  0  0  0
  1  2  1  0  0  0  0
  1  3  1  0  0  0  0
  1  8  1  0  0  0  0
  2  4  1  0  0  0  0
  2  9  1  0  0  0  0
  3  5  1  0  0  0  0
  3 10  1  0  0  0  0
  4  6  1  0  0  0  0
  4  7  1  0  0  0  0
  5  7  1  0  0  0  0
  5 11  1  0  0  0  0
  6 12  1  0  0  0  0
  1 13  1  0  0  0  0
  2 14  1  0  0  0  0
  3 15  1  0  0  0  0
  4 16  1  0  0  0  0
  5 17  1  0  0  0  0
  6 18  1  0  0  0  0
  6 19  1  0  0  0  0
  8 20  1  0  0  0  0
  9 21  1  0  0  0  0
 10 22  1  0  0  0  0
 11 23  1  0  0  0  0
 12 24  1  0  0  0  0
M  END
> <FRED Chemgauss4 score>
-6.250787

$$$$
C87440425	P136787889
  -OEChem-05122015083D

 19 19  0     0  0  0  0  0  0999 V2000
   58.3549  157.7956   -8.1643 C   0  0  0  0  0  0  0  0  0  0  0  0
   57.2779  156.9931   -6.5665 C   0  0  0  0  0  0  0  0  0  0  0  0
   56.7591  156.0892   -5.5077 C   0  0  0  0  0  0  0  0  0  0  0  0
   53.7201  156.2823   -3.4386 C   0  0  0  0  0  0  0  0  0  0  0  0
   55.1591  155.8599   -3.6253 C   0  0  0  0  0  0  0  0  0  0  0  0
   58.2311  156.6657   -7.4077 N   0  0  0  0  0  0  0  0  0  0  0  0
   57.5382  158.8016   -7.8441 N   0  0  0  0  0  0  0  0  0  0  0  0
   56.8602  158.2625   -6.8195 N   0  0  0  0  0  0  0  0  0  0  0  0
   53.1428  156.7097   -4.6151 N   0  0  0  0  0  0  0  0  0  0  0  0
   55.7447  156.6012   -4.7034 N   0  0  0  0  0  0  0  0  0  0  0  0
   57.2495  154.9703   -5.3807 O   0  0  0  0  0  0  0  0  0  0  0  0
   53.1176  156.2102   -2.3710 O   0  0  0  0  0  0  0  0  0  0  0  0
   59.0626  157.8887   -8.9747 H   0  0  0  0  0  0  0  0  0  0  0  0
   55.2253  154.7964   -3.8703 H   0  0  0  0  0  0  0  0  0  0  0  0
   55.7228  156.0683   -2.7119 H   0  0  0  0  0  0  0  0  0  0  0  0
   56.1450  158.8099   -6.3555 H   0  0  0  0  0  0  0  0  0  0  0  0
   53.6705  156.7186   -5.4816 H   0  0  0  0  0  0  0  0  0  0  0  0
   52.1801  157.0274   -4.6644 H   0  0  0  0  0  0  0  0  0  0  0  0
   55.4378  157.5650   -4.8368 H   0  0  0  0  0  0  0  0  0  0  0  0
  1  6  1  0  0  0  0
  1  7  2  0  0  0  0
  2  3  1  0  0  0  0
  2  6  2  0  0  0  0
  2  8  1  0  0  0  0
  3 10  1  0  0  0  0
  3 11  2  0  0  0  0
  4  5  1  0  0  0  0
  4  9  1  0  0  0  0
  4 12  2  0  0  0  0
  5 10  1  0  0  0  0
  7  8  1  0  0  0  0
  1 13  1  0  0  0  0
  5 14  1  0  0  0  0
  5 15  1  0  0  0  0
  8 16  1  0  0  0  0
  9 17  1  0  0  0  0
  9 18  1  0  0  0  0
 10 19  1  0  0  0  0
M  END
> <FRED Chemgauss4 score>
-6.250406

$$$$
C89832756	P140428014
  -OEChem-05122015083D

 46 48  0     1  0  0  0  0  0999 V2000
   56.5304  156.5553   -6.6178 C   0  0  0  0  0  0  0  0  0  0  0  0
   56.1482  158.7231   -2.4173 C   0  0  0  0  0  0  0  0  0  0  0  0
   55.4532  155.6420   -6.5242 C   0  0  0  0  0  0  0  0  0  0  0  0
   55.2529  157.8186   -1.8858 C   0  0  0  0  0  0  0  0  0  0  0  0
   57.6529  155.7985   -6.8609 C   0  0  0  0  0  0  0  0  0  0  0  0
   55.9942  154.3922   -6.7171 C   0  0  0  0  0  0  0  0  0  0  0  0
   56.3922  159.2251   -0.2964 C   0  0  0  0  0  0  0  0  0  0  0  0
   54.3919  156.8139   -2.5613 C   0  0  0  0  0  0  0  0  0  0  0  0
   57.5575  161.9384    1.9026 C   0  0  0  0  0  0  0  0  0  0  0  0
   57.8363  161.0502    0.7154 C   0  0  0  0  0  0  0  0  0  0  0  0
   56.0628  161.7753    2.0716 C   0  0  0  0  0  0  0  0  0  0  0  0
   56.8798  159.8927    0.9619 C   0  0  1  0  0  0  0  0  0  0  0  0
   59.0697  156.1352   -7.0573 C   0  0  0  0  0  0  0  0  0  0  0  0
   55.4232  153.0374   -6.7417 C   0  0  0  0  0  0  0  0  0  0  0  0
   53.6290  157.3738   -6.8128 C   0  0  0  0  0  0  0  0  0  0  0  0
   53.7006  155.8576   -4.7439 C   0  0  0  0  0  0  0  0  0  0  0  0
   53.9828  155.9823   -6.2597 C   0  0  2  0  0  0  0  0  0  0  0  0
   56.8022  159.5307   -1.5075 N   0  0  0  0  0  0  0  0  0  0  0  0
   54.5003  156.7746   -3.9334 N   0  0  0  0  0  0  0  0  0  0  0  0
   53.6431  156.1137   -1.8849 O   0  0  0  0  0  0  0  0  0  0  0  0
   57.3346  154.4789   -6.9231 O   0  0  0  0  0  0  0  0  0  0  0  0
   55.7476  160.4334    1.6720 O   0  0  0  0  0  0  0  0  0  0  0  0
   53.1481  155.0412   -6.9490 O   0  0  0  0  0  0  0  0  0  0  0  0
   55.2218  157.9757   -0.1782 S   0  0  0  0  0  0  0  0  0  0  0  0
   56.4947  157.6312   -6.5186 H   0  0  0  0  0  0  0  0  0  0  0  0
   56.3657  158.8395   -3.4710 H   0  0  0  0  0  0  0  0  0  0  0  0
   58.0783  161.5494    2.7853 H   0  0  0  0  0  0  0  0  0  0  0  0
   57.8600  162.9781    1.7543 H   0  0  0  0  0  0  0  0  0  0  0  0
   57.5932  161.5863   -0.2113 H   0  0  0  0  0  0  0  0  0  0  0  0
   58.8804  160.7281    0.6496 H   0  0  0  0  0  0  0  0  0  0  0  0
   55.7358  161.9387    3.1023 H   0  0  0  0  0  0  0  0  0  0  0  0
   55.5115  162.4583    1.4163 H   0  0  0  0  0  0  0  0  0  0  0  0
   57.3447  159.1328    1.6172 H   0  0  0  0  0  0  0  0  0  0  0  0
   59.6199  156.1412   -6.0994 H   0  0  0  0  0  0  0  0  0  0  0  0
   59.5826  155.4206   -7.7275 H   0  0  0  0  0  0  0  0  0  0  0  0
   59.2049  157.1300   -7.5213 H   0  0  0  0  0  0  0  0  0  0  0  0
   55.1053  152.7525   -7.7602 H   0  0  0  0  0  0  0  0  0  0  0  0
   56.1420  152.2728   -6.3940 H   0  0  0  0  0  0  0  0  0  0  0  0
   54.5413  152.9420   -6.0816 H   0  0  0  0  0  0  0  0  0  0  0  0
   52.5779  157.6230   -6.6266 H   0  0  0  0  0  0  0  0  0  0  0  0
   53.7577  157.4015   -7.9017 H   0  0  0  0  0  0  0  0  0  0  0  0
   54.2444  158.1669   -6.3766 H   0  0  0  0  0  0  0  0  0  0  0  0
   53.9011  154.8374   -4.3969 H   0  0  0  0  0  0  0  0  0  0  0  0
   52.6423  156.0676   -4.5439 H   0  0  0  0  0  0  0  0  0  0  0  0
   55.0872  157.4187   -4.4387 H   0  0  0  0  0  0  0  0  0  0  0  0
   53.3652  155.1291   -7.8874 H   0  0  0  0  0  0  0  0  0  0  0  0
  1  3  1  0  0  0  0
  1  5  2  0  0  0  0
  2  4  2  0  0  0  0
  2 18  1  0  0  0  0
  3  6  2  0  0  0  0
  3 17  1  0  0  0  0
  4  8  1  0  0  0  0
  4 24  1  0  0  0  0
  5 13  1  0  0  0  0
  5 21  1  0  0  0  0
  6 14  1  0  0  0  0
  6 21  1  0  0  0  0
  7 12  1  0  0  0  0
  7 18  2  0  0  0  0
  7 24  1  0  0  0  0
  8 19  1  0  0  0  0
  8 20  2  0  0  0  0
  9 10  1  0  0  0  0
  9 11  1  0  0  0  0
 10 12  1  0  0  0  0
 11 22  1  0  0  0  0
 12 22  1  0  0  0  0
 15 17  1  0  0  0  0
 16 17  1  0  0  0  0
 16 19  1  0  0  0  0
 17 23  1  0  0  0  0
  1 25  1  0  0  0  0
  2 26  1  0  0  0  0
  9 27  1  0  0  0  0
  9 28  1  0  0  0  0
 10 29  1  0  0  0  0
 10 30  1  0  0  0  0
 11 31  1  0  0  0  0
 11 32  1  0  0  0  0
 12 33  1  0  0  0  0
 13 34  1  0  0  0  0
 13 35  1  0  0  0  0
 13 36  1  0  0  0  0
 14 37  1  0  0  0  0
 14 38  1  0  0  0  0
 14 39  1  0  0  0  0
 15 40  1  0  0  0  0
 15 41  1  0  0  0  0
 15 42  1  0  0  0  0
 16 43  1  0  0  0  0
 16 44  1  0  0  0  0
 19 45  1  0  0  0  0
 23 46  1  0  0  0  0
M  END
> <FRED Chemgauss4 score>
-6.249582

$$$$
C97581700	P154674553
  -OEChem-05122015083D

 46 47  0     1  0  0  0  0  0999 V2000
   53.6796  156.9270   -3.4319 C   0  0  0  0  0  0  0  0  0  0  0  0
   55.3488  158.2756   -3.9117 C   0  0  0  0  0  0  0  0  0  0  0  0
   54.5663  157.2905   -4.4631 C   0  0  0  0  0  0  0  0  0  0  0  0
   59.5353  155.7682   -7.7556 C   0  0  0  0  0  0  0  0  0  0  0  0
   58.4674  156.7841   -8.1444 C   0  0  0  0  0  0  0  0  0  0  0  0
   59.3724  155.3557   -6.2970 C   0  0  0  0  0  0  0  0  0  0  0  0
   57.0665  156.2801   -7.7936 C   0  0  0  0  0  0  0  0  0  0  0  0
   57.9430  154.8972   -6.0046 C   0  0  0  0  0  0  0  0  0  0  0  0
   56.7216  158.8865   -1.0423 C   0  0  0  0  0  0  0  0  0  0  0  0
   55.6741  154.6932   -4.7277 C   0  0  0  0  0  0  0  0  0  0  0  0
   55.1129  154.5564   -7.1498 C   0  0  0  0  0  0  0  0  0  0  0  0
   55.4163  159.3636   -1.6555 C   0  0  0  0  0  0  0  0  0  0  0  0
   54.6444  156.7206   -5.8705 C   0  0  1  0  0  0  0  0  0  0  0  0
   55.6112  155.5005   -6.0393 C   0  0  0  0  0  0  0  0  0  0  0  0
   53.8795  157.6242   -2.3103 N   0  0  0  0  0  0  0  0  0  0  0  0
   54.9009  158.4357   -2.6335 N   0  0  0  0  0  0  0  0  0  0  0  0
   56.9684  155.9353   -6.3683 N   0  0  0  0  0  0  0  0  0  0  0  0
   52.5615  157.6579   -6.3697 N   0  0  0  0  0  0  0  0  0  0  0  0
   53.3130  156.4417   -6.3737 N   0  0  0  0  0  0  0  0  0  0  0  0
   52.8959  156.1829   -3.4482 H   0  0  0  0  0  0  0  0  0  0  0  0
   56.1667  158.8607   -4.3098 H   0  0  0  0  0  0  0  0  0  0  0  0
   59.4499  154.8832   -8.3980 H   0  0  0  0  0  0  0  0  0  0  0  0
   60.5332  156.1901   -7.9183 H   0  0  0  0  0  0  0  0  0  0  0  0
   58.6573  157.7321   -7.6250 H   0  0  0  0  0  0  0  0  0  0  0  0
   58.5279  156.9910   -9.2189 H   0  0  0  0  0  0  0  0  0  0  0  0
   60.0756  154.5490   -6.0605 H   0  0  0  0  0  0  0  0  0  0  0  0
   59.6268  156.2023   -5.6465 H   0  0  0  0  0  0  0  0  0  0  0  0
   56.3485  157.0740   -8.0334 H   0  0  0  0  0  0  0  0  0  0  0  0
   56.8186  155.4151   -8.4230 H   0  0  0  0  0  0  0  0  0  0  0  0
   57.7388  153.9630   -6.5445 H   0  0  0  0  0  0  0  0  0  0  0  0
   57.8679  154.6770   -4.9327 H   0  0  0  0  0  0  0  0  0  0  0  0
   56.5953  157.9181   -0.5467 H   0  0  0  0  0  0  0  0  0  0  0  0
   57.0769  159.6066   -0.2987 H   0  0  0  0  0  0  0  0  0  0  0  0
   57.4985  158.7720   -1.8055 H   0  0  0  0  0  0  0  0  0  0  0  0
   56.0232  155.3075   -3.8901 H   0  0  0  0  0  0  0  0  0  0  0  0
   54.6921  154.2852   -4.4646 H   0  0  0  0  0  0  0  0  0  0  0  0
   56.3738  153.8534   -4.8148 H   0  0  0  0  0  0  0  0  0  0  0  0
   55.0476  155.0789   -8.1119 H   0  0  0  0  0  0  0  0  0  0  0  0
   54.1093  154.1723   -6.9372 H   0  0  0  0  0  0  0  0  0  0  0  0
   55.7878  153.7033   -7.2789 H   0  0  0  0  0  0  0  0  0  0  0  0
   55.5526  160.3326   -2.1488 H   0  0  0  0  0  0  0  0  0  0  0  0
   54.6520  159.4972   -0.8816 H   0  0  0  0  0  0  0  0  0  0  0  0
   55.0083  157.5202   -6.5306 H   0  0  0  0  0  0  0  0  0  0  0  0
   53.1607  158.4250   -6.0659 H   0  0  0  0  0  0  0  0  0  0  0  0
   52.2863  157.8813   -7.3252 H   0  0  0  0  0  0  0  0  0  0  0  0
   52.8483  155.7635   -5.7676 H   0  0  0  0  0  0  0  0  0  0  0  0
  1  3  1  0  0  0  0
  1 15  2  0  0  0  0
  2  3  2  0  0  0  0
  2 16  1  0  0  0  0
  3 13  1  0  0  0  0
  4  5  1  0  0  0  0
  4  6  1  0  0  0  0
  5  7  1  0  0  0  0
  6  8  1  0  0  0  0
  7 17  1  0  0  0  0
  8 17  1  0  0  0  0
  9 12  1  0  0  0  0
 10 14  1  0  0  0  0
 11 14  1  0  0  0  0
 12 16  1  0  0  0  0
 13 14  1  0  0  0  0
 13 19  1  0  0  0  0
 14 17  1  0  0  0  0
 15 16  1  0  0  0  0
 18 19  1  0  0  0  0
  1 20  1  0  0  0  0
  2 21  1  0  0  0  0
  4 22  1  0  0  0  0
  4 23  1  0  0  0  0
  5 24  1  0  0  0  0
  5 25  1  0  0  0  0
  6 26  1  0  0  0  0
  6 27  1  0  0  0  0
  7 28  1  0  0  0  0
  7 29  1  0  0  0  0
  8 30  1  0  0  0  0
  8 31  1  0  0  0  0
  9 32  1  0  0  0  0
  9 33  1  0  0  0  0
  9 34  1  0  0  0  0
 10 35  1  0  0  0  0
 10 36  1  0  0  0  0
 10 37  1  0  0  0  0
 11 38  1  0  0  0  0
 11 39  1  0  0  0  0
 11 40  1  0  0  0  0
 12 41  1  0  0  0  0
 12 42  1  0  0  0  0
 13 43  1  0  0  0  0
 18 44  1  0  0  0  0
 18 45  1  0  0  0  0
 19 46  1  0  0  0  0
M  END
> <FRED Chemgauss4 score>
-6.245509

$$$$
C79926186	P124866785
  -OEChem-05122015083D

 40 41  0     1  0  0  0  0  0999 V2000
   53.7396  156.8629   -5.9724 C   0  0  0  0  0  0  0  0  0  0  0  0
   54.1270  154.4912   -5.7230 C   0  0  0  0  0  0  0  0  0  0  0  0
   55.1163  157.0874   -5.9756 C   0  0  0  0  0  0  0  0  0  0  0  0
   55.5037  154.7157   -5.7263 C   0  0  0  0  0  0  0  0  0  0  0  0
   53.2450  155.5647   -5.8460 C   0  0  0  0  0  0  0  0  0  0  0  0
   55.9983  156.0138   -5.8526 C   0  0  0  0  0  0  0  0  0  0  0  0
   56.2244  159.4556   -1.7575 C   0  0  0  0  0  0  0  0  0  0  0  0
   57.4498  159.2998   -0.8909 C   0  0  0  0  0  0  0  0  0  0  0  0
   58.1981  160.6116   -1.1140 C   0  0  0  0  0  0  0  0  0  0  0  0
   57.8148  161.0229   -2.5302 C   0  0  1  0  0  0  0  0  0  0  0  0
   58.7638  160.4644   -3.5821 C   0  0  0  0  0  0  0  0  0  0  0  0
   57.7630  158.1029   -6.0389 C   0  0  0  0  0  0  0  0  0  0  0  0
   59.1903  158.6171   -6.0697 C   0  0  0  0  0  0  0  0  0  0  0  0
   56.4915  160.4677   -2.6735 N   0  0  0  0  0  0  0  0  0  0  0  0
   51.8529  155.3372   -5.8423 N   0  0  0  0  0  0  0  0  0  0  0  0
   58.3464  160.8764   -4.8814 N   0  0  0  0  0  0  0  0  0  0  0  0
   55.2096  158.7811   -1.6749 O   0  0  0  0  0  0  0  0  0  0  0  0
   60.6025  160.8190   -6.1579 O   0  0  0  0  0  0  0  0  0  0  0  0
   58.4609  160.6859   -7.4815 O   0  0  0  0  0  0  0  0  0  0  0  0
   57.7419  156.2986   -5.8551 S   0  0  0  0  0  0  0  0  0  0  0  0
   59.2264  160.3815   -6.2879 S   0  0  0  0  0  0  0  0  0  0  0  0
   53.0610  157.7065   -6.0694 H   0  0  0  0  0  0  0  0  0  0  0  0
   53.7523  153.4757   -5.6249 H   0  0  0  0  0  0  0  0  0  0  0  0
   55.4823  158.1064   -6.0744 H   0  0  0  0  0  0  0  0  0  0  0  0
   56.1758  153.8665   -5.6284 H   0  0  0  0  0  0  0  0  0  0  0  0
   57.1730  159.1630    0.1571 H   0  0  0  0  0  0  0  0  0  0  0  0
   58.0276  158.4400   -1.2432 H   0  0  0  0  0  0  0  0  0  0  0  0
   57.8242  161.3593   -0.4025 H   0  0  0  0  0  0  0  0  0  0  0  0
   59.2768  160.5161   -0.9576 H   0  0  0  0  0  0  0  0  0  0  0  0
   57.7515  162.1118   -2.6245 H   0  0  0  0  0  0  0  0  0  0  0  0
   58.7487  159.3824   -3.5297 H   0  0  0  0  0  0  0  0  0  0  0  0
   59.7628  160.8380   -3.3944 H   0  0  0  0  0  0  0  0  0  0  0  0
   57.2376  158.3665   -6.9627 H   0  0  0  0  0  0  0  0  0  0  0  0
   57.2087  158.5479   -5.2063 H   0  0  0  0  0  0  0  0  0  0  0  0
   59.7592  158.1906   -6.9022 H   0  0  0  0  0  0  0  0  0  0  0  0
   59.7186  158.4103   -5.1335 H   0  0  0  0  0  0  0  0  0  0  0  0
   55.8324  160.7621   -3.3873 H   0  0  0  0  0  0  0  0  0  0  0  0
   51.2308  156.1190   -5.8834 H   0  0  0  0  0  0  0  0  0  0  0  0
   51.5112  154.4078   -5.7038 H   0  0  0  0  0  0  0  0  0  0  0  0
   57.3118  160.9524   -5.0359 H   0  0  0  0  0  0  0  0  0  0  0  0
  1  3  1  0  0  0  0
  1  5  2  0  0  0  0
  2  4  2  0  0  0  0
  2  5  1  0  0  0  0
  3  6  2  0  0  0  0
  4  6  1  0  0  0  0
  5 15  1  0  0  0  0
  6 20  1  0  0  0  0
  7  8  1  0  0  0  0
  7 14  1  0  0  0  0
  7 17  2  0  0  0  0
  8  9  1  0  0  0  0
  9 10  1  0  0  0  0
 10 11  1  0  0  0  0
 10 14  1  0  0  0  0
 11 16  1  0  0  0  0
 12 13  1  0  0  0  0
 12 20  1  0  0  0  0
 13 21  1  0  0  0  0
 16 21  1  0  0  0  0
 18 21  2  0  0  0  0
 19 21  2  0  0  0  0
  1 22  1  0  0  0  0
  2 23  1  0  0  0  0
  3 24  1  0  0  0  0
  4 25  1  0  0  0  0
  8 26  1  0  0  0  0
  8 27  1  0  0  0  0
  9 28  1  0  0  0  0
  9 29  1  0  0  0  0
 10 30  1  0  0  0  0
 11 31  1  0  0  0  0
 11 32  1  0  0  0  0
 12 33  1  0  0  0  0
 12 34  1  0  0  0  0
 13 35  1  0  0  0  0
 13 36  1  0  0  0  0
 14 37  1  0  0  0  0
 15 38  1  0  0  0  0
 15 39  1  0  0  0  0
 16 40  1  0  0  0  0
M  END
> <FRED Chemgauss4 score>
-6.245078

$$$$
C54897756	P82660573
  -OEChem-05122015083D

 37 38  0     1  0  0  0  0  0999 V2000
   61.6982  162.9285   -5.8810 C   0  0  0  0  0  0  0  0  0  0  0  0
   59.7603  161.5156   -5.5890 C   0  0  0  0  0  0  0  0  0  0  0  0
   60.8901  162.4303   -3.6593 C   0  0  0  0  0  0  0  0  0  0  0  0
   57.8268  157.7842   -4.3988 C   0  0  0  0  0  0  0  0  0  0  0  0
   60.6757  162.1526   -6.4269 C   0  0  0  0  0  0  0  0  0  0  0  0
   61.8054  163.0673   -4.4972 C   0  0  0  0  0  0  0  0  0  0  0  0
   59.8675  161.6544   -4.2052 C   0  0  0  0  0  0  0  0  0  0  0  0
   56.6568  157.9931   -3.6992 C   0  0  0  0  0  0  0  0  0  0  0  0
   58.2615  159.7879   -3.6203 C   0  0  0  0  0  0  0  0  0  0  0  0
   60.5611  162.0042   -7.9065 C   0  0  0  0  0  0  0  0  0  0  0  0
   62.8988  163.8969   -3.9136 C   0  0  0  0  0  0  0  0  0  0  0  0
   55.2388  156.1785   -4.7425 C   0  0  0  0  0  0  0  0  0  0  0  0
   58.4644  161.8147   -2.2219 C   0  0  0  0  0  0  0  0  0  0  0  0
   55.4806  157.1160   -3.5421 C   0  0  2  0  0  0  0  0  0  0  0  0
   58.7480  158.8125   -4.3550 N   0  0  0  0  0  0  0  0  0  0  0  0
   54.2565  157.8608   -3.2664 N   0  0  0  0  0  0  0  0  0  0  0  0
   58.9420  161.0103   -3.3580 N   0  0  0  0  0  0  0  0  0  0  0  0
   56.7016  159.5356   -2.9508 S   0  0  0  0  0  0  0  0  0  0  0  0
   62.4118  163.4252   -6.5342 H   0  0  0  0  0  0  0  0  0  0  0  0
   58.9636  160.9109   -6.0165 H   0  0  0  0  0  0  0  0  0  0  0  0
   60.9752  162.5397   -2.5804 H   0  0  0  0  0  0  0  0  0  0  0  0
   58.0615  156.8934   -4.9664 H   0  0  0  0  0  0  0  0  0  0  0  0
   61.1407  161.1384   -8.2495 H   0  0  0  0  0  0  0  0  0  0  0  0
   59.5161  161.8670   -8.2134 H   0  0  0  0  0  0  0  0  0  0  0  0
   60.9300  162.8980   -8.4263 H   0  0  0  0  0  0  0  0  0  0  0  0
   62.5699  164.9371   -3.8000 H   0  0  0  0  0  0  0  0  0  0  0  0
   63.2037  163.5189   -2.9291 H   0  0  0  0  0  0  0  0  0  0  0  0
   63.7931  163.8823   -4.5502 H   0  0  0  0  0  0  0  0  0  0  0  0
   55.1175  156.7605   -5.6626 H   0  0  0  0  0  0  0  0  0  0  0  0
   56.0718  155.4816   -4.8890 H   0  0  0  0  0  0  0  0  0  0  0  0
   54.3350  155.5747   -4.6030 H   0  0  0  0  0  0  0  0  0  0  0  0
   57.5696  162.3738   -2.5073 H   0  0  0  0  0  0  0  0  0  0  0  0
   59.2368  162.5225   -1.9088 H   0  0  0  0  0  0  0  0  0  0  0  0
   58.2196  161.1664   -1.3763 H   0  0  0  0  0  0  0  0  0  0  0  0
   55.5924  156.4563   -2.6565 H   0  0  0  0  0  0  0  0  0  0  0  0
   54.3189  158.6698   -2.6862 H   0  0  0  0  0  0  0  0  0  0  0  0
   53.3844  157.4315   -3.4907 H   0  0  0  0  0  0  0  0  0  0  0  0
  1  5  2  0  0  0  0
  1  6  1  0  0  0  0
  2  5  1  0  0  0  0
  2  7  2  0  0  0  0
  3  6  2  0  0  0  0
  3  7  1  0  0  0  0
  4  8  2  0  0  0  0
  4 15  1  0  0  0  0
  5 10  1  0  0  0  0
  6 11  1  0  0  0  0
  7 17  1  0  0  0  0
  8 14  1  0  0  0  0
  8 18  1  0  0  0  0
  9 15  2  0  0  0  0
  9 17  1  0  0  0  0
  9 18  1  0  0  0  0
 12 14  1  0  0  0  0
 13 17  1  0  0  0  0
 14 16  1  0  0  0  0
  1 19  1  0  0  0  0
  2 20  1  0  0  0  0
  3 21  1  0  0  0  0
  4 22  1  0  0  0  0
 10 23  1  0  0  0  0
 10 24  1  0  0  0  0
 10 25  1  0  0  0  0
 11 26  1  0  0  0  0
 11 27  1  0  0  0  0
 11 28  1  0  0  0  0
 12 29  1  0  0  0  0
 12 30  1  0  0  0  0
 12 31  1  0  0  0  0
 13 32  1  0  0  0  0
 13 33  1  0  0  0  0
 13 34  1  0  0  0  0
 14 35  1  0  0  0  0
 16 36  1  0  0  0  0
 16 37  1  0  0  0  0
M  END
> <FRED Chemgauss4 score>
-6.243771

$$$$
C68645088	P105396542
  -OEChem-05122015083D

 50 51  0     1  0  0  0  0  0999 V2000
   54.2320  157.1719   -3.5612 C   0  0  0  0  0  0  0  0  0  0  0  0
   61.4714  162.5997   -5.5123 C   0  0  0  0  0  0  0  0  0  0  0  0
   60.2174  161.8809   -5.9538 C   0  0  0  0  0  0  0  0  0  0  0  0
   59.1789  160.7729   -1.6702 C   0  0  0  0  0  0  0  0  0  0  0  0
   61.2040  162.9452   -4.0555 C   0  0  0  0  0  0  0  0  0  0  0  0
   60.3728  161.4532   -2.3416 C   0  0  0  0  0  0  0  0  0  0  0  0
   58.4253  159.7435   -2.5160 C   0  0  0  0  0  0  0  0  0  0  0  0
   58.3218  160.6937   -4.7869 C   0  0  0  0  0  0  0  0  0  0  0  0
   59.7864  161.1483   -4.6853 C   0  0  2  0  0  0  0  0  0  0  0  0
   55.3473  160.0730   -2.7479 C   0  0  0  0  0  0  0  0  0  0  0  0
   55.0832  157.8984   -5.8166 C   0  0  0  0  0  0  0  0  0  0  0  0
   56.2910  155.2628   -3.4614 C   0  0  0  0  0  0  0  0  0  0  0  0
   56.5869  158.1443   -3.8005 C   0  0  0  0  0  0  0  0  0  0  0  0
   56.3808  159.6767   -3.8039 C   0  0  2  0  0  0  0  0  0  0  0  0
   55.4752  157.2869   -4.4604 C   0  0  1  0  0  0  0  0  0  0  0  0
   60.0647  162.1172   -3.6131 N   0  0  2  0  0  0  0  0  0  0  0  0
   57.6146  160.4155   -3.5307 N   0  0  1  0  0  0  0  0  0  0  0  0
   53.2257  156.3825   -4.0765 N   0  0  0  0  0  0  0  0  0  0  0  0
   55.9553  155.9219   -4.7114 N   0  0  0  0  0  0  0  0  0  0  0  0
   54.1318  157.7299   -2.4688 O   0  0  0  0  0  0  0  0  0  0  0  0
   62.3530  161.9598   -5.6015 H   0  0  0  0  0  0  0  0  0  0  0  0
   61.6341  163.4967   -6.1156 H   0  0  0  0  0  0  0  0  0  0  0  0
   59.4606  162.6037   -6.2706 H   0  0  0  0  0  0  0  0  0  0  0  0
   60.4056  161.1937   -6.7794 H   0  0  0  0  0  0  0  0  0  0  0  0
   59.5370  160.2639   -0.7655 H   0  0  0  0  0  0  0  0  0  0  0  0
   58.4751  161.5383   -1.3148 H   0  0  0  0  0  0  0  0  0  0  0  0
   62.1086  162.7329   -3.4467 H   0  0  0  0  0  0  0  0  0  0  0  0
   60.9851  164.0246   -3.9300 H   0  0  0  0  0  0  0  0  0  0  0  0
   60.7423  162.2288   -1.6317 H   0  0  0  0  0  0  0  0  0  0  0  0
   61.2292  160.7433   -2.4480 H   0  0  0  0  0  0  0  0  0  0  0  0
   59.1403  159.1341   -3.0141 H   0  0  0  0  0  0  0  0  0  0  0  0
   57.8219  159.1693   -1.8565 H   0  0  0  0  0  0  0  0  0  0  0  0
   57.7161  161.3991   -5.4381 H   0  0  0  0  0  0  0  0  0  0  0  0
   58.3292  159.7558   -5.4166 H   0  0  0  0  0  0  0  0  0  0  0  0
   60.4289  160.2479   -4.5756 H   0  0  0  0  0  0  0  0  0  0  0  0
   55.6825  159.7754   -1.7484 H   0  0  0  0  0  0  0  0  0  0  0  0
   54.3866  159.5792   -2.9332 H   0  0  0  0  0  0  0  0  0  0  0  0
   55.1756  161.1554   -2.7370 H   0  0  0  0  0  0  0  0  0  0  0  0
   55.9523  157.9920   -6.4788 H   0  0  0  0  0  0  0  0  0  0  0  0
   54.3325  157.2859   -6.3297 H   0  0  0  0  0  0  0  0  0  0  0  0
   54.6583  158.9017   -5.7011 H   0  0  0  0  0  0  0  0  0  0  0  0
   55.4091  155.2055   -2.8182 H   0  0  0  0  0  0  0  0  0  0  0  0
   57.0726  155.8203   -2.9382 H   0  0  0  0  0  0  0  0  0  0  0  0
   56.6527  154.2492   -3.6539 H   0  0  0  0  0  0  0  0  0  0  0  0
   57.5500  157.9129   -4.2789 H   0  0  0  0  0  0  0  0  0  0  0  0
   56.7018  157.8251   -2.7554 H   0  0  0  0  0  0  0  0  0  0  0  0
   55.9988  159.9953   -4.7799 H   0  0  0  0  0  0  0  0  0  0  0  0
   53.2966  155.9138   -4.9733 H   0  0  0  0  0  0  0  0  0  0  0  0
   52.3635  156.2408   -3.5606 H   0  0  0  0  0  0  0  0  0  0  0  0
   56.7782  155.9723   -5.3048 H   0  0  0  0  0  0  0  0  0  0  0  0
  1 15  1  0  0  0  0
  1 18  1  0  0  0  0
  1 20  2  0  0  0  0
  2  3  1  0  0  0  0
  2  5  1  0  0  0  0
  3  9  1  0  0  0  0
  4  6  1  0  0  0  0
  4  7  1  0  0  0  0
  5 16  1  0  0  0  0
  6 16  1  0  0  0  0
  7 17  1  0  0  0  0
  8  9  1  0  0  0  0
  8 17  1  0  0  0  0
  9 16  1  0  0  0  0
 10 14  1  0  0  0  0
 11 15  1  0  0  0  0
 12 19  1  0  0  0  0
 13 14  1  0  0  0  0
 13 15  1  0  0  0  0
 14 17  1  0  0  0  0
 15 19  1  0  0  0  0
  2 21  1  0  0  0  0
  2 22  1  0  0  0  0
  3 23  1  0  0  0  0
  3 24  1  0  0  0  0
  4 25  1  0  0  0  0
  4 26  1  0  0  0  0
  5 27  1  0  0  0  0
  5 28  1  0  0  0  0
  6 29  1  0  0  0  0
  6 30  1  0  0  0  0
  7 31  1  0  0  0  0
  7 32  1  0  0  0  0
  8 33  1  0  0  0  0
  8 34  1  0  0  0  0
  9 35  1  0  0  0  0
 10 36  1  0  0  0  0
 10 37  1  0  0  0  0
 10 38  1  0  0  0  0
 11 39  1  0  0  0  0
 11 40  1  0  0  0  0
 11 41  1  0  0  0  0
 12 42  1  0  0  0  0
 12 43  1  0  0  0  0
 12 44  1  0  0  0  0
 13 45  1  0  0  0  0
 13 46  1  0  0  0  0
 14 47  1  0  0  0  0
 18 48  1  0  0  0  0
 18 49  1  0  0  0  0
 19 50  1  0  0  0  0
M  END
> <FRED Chemgauss4 score>
-6.243360

$$$$
C75108405	P116956145
  -OEChem-05122015083D

 37 38  0     1  0  0  0  0  0999 V2000
   56.1131  155.1971   -5.5948 C   0  0  0  0  0  0  0  0  0  0  0  0
   57.3790  155.6912   -5.9096 C   0  0  0  0  0  0  0  0  0  0  0  0
   56.5619  157.9500   -5.6500 C   0  0  0  0  0  0  0  0  0  0  0  0
   55.0716  156.0795   -5.3076 C   0  0  0  0  0  0  0  0  0  0  0  0
   57.6034  157.0676   -5.9372 C   0  0  0  0  0  0  0  0  0  0  0  0
   55.2960  157.4559   -5.3352 C   0  0  0  0  0  0  0  0  0  0  0  0
   53.7661  155.5174   -4.9840 C   0  0  0  0  0  0  0  0  0  0  0  0
   59.2059  158.7774   -6.8802 C   0  0  0  0  0  0  0  0  0  0  0  0
   61.4785  163.9509   -5.1900 C   0  0  0  0  0  0  0  0  0  0  0  0
   61.0197  164.0809   -6.6338 C   0  0  0  0  0  0  0  0  0  0  0  0
   61.3290  161.1926   -5.3938 C   0  0  0  0  0  0  0  0  0  0  0  0
   60.8624  161.3138   -6.8452 C   0  0  2  0  0  0  0  0  0  0  0  0
   61.2246  160.0498   -7.6250 C   0  0  0  0  0  0  0  0  0  0  0  0
   52.8823  155.2950   -6.0339 N   0  0  0  0  0  0  0  0  0  0  0  0
   58.8873  157.5683   -6.2558 N   0  0  0  0  0  0  0  0  0  0  0  0
   60.6015  158.9194   -7.0244 N   0  0  0  0  0  0  0  0  0  0  0  0
   53.4468  155.2616   -3.8115 O   0  0  0  0  0  0  0  0  0  0  0  0
   58.4134  159.6325   -7.2683 O   0  0  0  0  0  0  0  0  0  0  0  0
   60.7163  162.5400   -4.3355 S   0  0  0  0  0  0  0  0  0  0  0  0
   61.6382  162.7383   -7.6908 S   0  0  0  0  0  0  0  0  0  0  0  0
   54.0339  158.5807   -4.9837 Cl  0  0  0  0  0  0  0  0  0  0  0  0
   55.9507  154.1225   -5.5773 H   0  0  0  0  0  0  0  0  0  0  0  0
   58.1835  154.9947   -6.1316 H   0  0  0  0  0  0  0  0  0  0  0  0
   56.7427  159.0228   -5.6728 H   0  0  0  0  0  0  0  0  0  0  0  0
   62.5691  163.8758   -5.1172 H   0  0  0  0  0  0  0  0  0  0  0  0
   61.1854  164.8525   -4.6415 H   0  0  0  0  0  0  0  0  0  0  0  0
   59.9277  164.1317   -6.7090 H   0  0  0  0  0  0  0  0  0  0  0  0
   61.4089  165.0174   -7.0472 H   0  0  0  0  0  0  0  0  0  0  0  0
   60.9432  160.2622   -4.9618 H   0  0  0  0  0  0  0  0  0  0  0  0
   62.4216  161.1442   -5.3184 H   0  0  0  0  0  0  0  0  0  0  0  0
   59.7738  161.4376   -6.8911 H   0  0  0  0  0  0  0  0  0  0  0  0
   62.2985  159.9242   -7.6003 H   0  0  0  0  0  0  0  0  0  0  0  0
   60.8753  160.1541   -8.6429 H   0  0  0  0  0  0  0  0  0  0  0  0
   53.1662  155.5263   -6.9798 H   0  0  0  0  0  0  0  0  0  0  0  0
   51.9589  154.9058   -5.8730 H   0  0  0  0  0  0  0  0  0  0  0  0
   59.6701  156.9730   -5.9967 H   0  0  0  0  0  0  0  0  0  0  0  0
   61.2022  158.1650   -6.6765 H   0  0  0  0  0  0  0  0  0  0  0  0
  1  2  1  0  0  0  0
  1  4  2  0  0  0  0
  2  5  2  0  0  0  0
  3  5  1  0  0  0  0
  3  6  2  0  0  0  0
  4  6  1  0  0  0  0
  4  7  1  0  0  0  0
  5 15  1  0  0  0  0
  6 21  1  0  0  0  0
  7 14  1  0  0  0  0
  7 17  2  0  0  0  0
  8 15  1  0  0  0  0
  8 16  1  0  0  0  0
  8 18  2  0  0  0  0
  9 10  1  0  0  0  0
  9 19  1  0  0  0  0
 10 20  1  0  0  0  0
 11 12  1  0  0  0  0
 11 19  1  0  0  0  0
 12 13  1  0  0  0  0
 12 20  1  0  0  0  0
 13 16  1  0  0  0  0
  1 22  1  0  0  0  0
  2 23  1  0  0  0  0
  3 24  1  0  0  0  0
  9 25  1  0  0  0  0
  9 26  1  0  0  0  0
 10 27  1  0  0  0  0
 10 28  1  0  0  0  0
 11 29  1  0  0  0  0
 11 30  1  0  0  0  0
 12 31  1  0  0  0  0
 13 32  1  0  0  0  0
 13 33  1  0  0  0  0
 14 34  1  0  0  0  0
 14 35  1  0  0  0  0
 15 36  1  0  0  0  0
 16 37  1  0  0  0  0
M  END
> <FRED Chemgauss4 score>
-6.243265

$$$$
C22936959	P104234106
  -OEChem-05122015083D

 46 47  0     1  0  0  0  0  0999 V2000
   53.6165  155.6526   -4.1276 C   0  0  0  0  0  0  0  0  0  0  0  0
   59.0960  154.0465   -7.6204 C   0  0  0  0  0  0  0  0  0  0  0  0
   55.3411  157.0855   -2.9797 C   0  0  0  0  0  0  0  0  0  0  0  0
   56.2825  157.1465   -5.1824 C   0  0  0  0  0  0  0  0  0  0  0  0
   54.3239  155.1173   -6.4597 C   0  0  0  0  0  0  0  0  0  0  0  0
   55.0794  155.7567   -3.7063 C   0  0  2  0  0  0  0  0  0  0  0  0
   56.4336  157.7702   -3.8017 C   0  0  1  0  0  0  0  0  0  0  0  0
   55.7037  154.8209   -5.8931 C   0  0  1  0  0  0  0  0  0  0  0  0
   59.1691  157.3082   -8.3116 C   0  0  0  0  0  0  0  0  0  0  0  0
   62.2557  154.5174   -6.9735 C   0  0  0  0  0  0  0  0  0  0  0  0
   58.0215  154.0727   -6.5411 C   0  0  0  0  0  0  0  0  0  0  0  0
   56.7574  154.7918   -7.0010 C   0  0  0  0  0  0  0  0  0  0  0  0
   59.6839  156.4797   -7.1841 C   0  0  0  0  0  0  0  0  0  0  0  0
   61.3568  154.9161   -8.0940 C   0  0  0  0  0  0  0  0  0  0  0  0
   53.3378  155.2570   -5.4133 N   0  0  0  0  0  0  0  0  0  0  0  0
   56.0354  155.7526   -4.8209 N   0  0  1  0  0  0  0  0  0  0  0  0
   56.3211  159.2198   -3.8049 N   0  0  0  0  0  0  0  0  0  0  0  0
   59.9917  155.1212   -7.6257 N   0  0  0  0  0  0  0  0  0  0  0  0
   52.7141  155.8584   -3.3106 O   0  0  0  0  0  0  0  0  0  0  0  0
   59.1479  153.1158   -8.4287 O   0  0  0  0  0  0  0  0  0  0  0  0
   54.4389  157.7070   -2.9264 H   0  0  0  0  0  0  0  0  0  0  0  0
   55.6882  156.9200   -1.9532 H   0  0  0  0  0  0  0  0  0  0  0  0
   55.4433  157.5903   -5.7313 H   0  0  0  0  0  0  0  0  0  0  0  0
   57.1977  157.2741   -5.7694 H   0  0  0  0  0  0  0  0  0  0  0  0
   54.3064  156.0427   -7.0457 H   0  0  0  0  0  0  0  0  0  0  0  0
   53.9891  154.3056   -7.1146 H   0  0  0  0  0  0  0  0  0  0  0  0
   55.2848  154.9082   -3.0432 H   0  0  0  0  0  0  0  0  0  0  0  0
   57.4124  157.5008   -3.3825 H   0  0  0  0  0  0  0  0  0  0  0  0
   55.6851  153.8151   -5.4510 H   0  0  0  0  0  0  0  0  0  0  0  0
   59.9117  157.3815   -9.1135 H   0  0  0  0  0  0  0  0  0  0  0  0
   58.2426  156.8855   -8.7151 H   0  0  0  0  0  0  0  0  0  0  0  0
   58.9524  158.3233   -7.9579 H   0  0  0  0  0  0  0  0  0  0  0  0
   62.2845  155.2932   -6.2006 H   0  0  0  0  0  0  0  0  0  0  0  0
   61.9261  153.5736   -6.5256 H   0  0  0  0  0  0  0  0  0  0  0  0
   63.2764  154.3761   -7.3485 H   0  0  0  0  0  0  0  0  0  0  0  0
   57.7727  153.0393   -6.2741 H   0  0  0  0  0  0  0  0  0  0  0  0
   58.4275  154.5821   -5.6598 H   0  0  0  0  0  0  0  0  0  0  0  0
   56.3334  154.2931   -7.8770 H   0  0  0  0  0  0  0  0  0  0  0  0
   56.9894  155.8199   -7.2933 H   0  0  0  0  0  0  0  0  0  0  0  0
   58.9376  156.4106   -6.3871 H   0  0  0  0  0  0  0  0  0  0  0  0
   60.6006  156.9119   -6.7721 H   0  0  0  0  0  0  0  0  0  0  0  0
   61.3327  154.1372   -8.8620 H   0  0  0  0  0  0  0  0  0  0  0  0
   61.6965  155.8506   -8.5503 H   0  0  0  0  0  0  0  0  0  0  0  0
   52.3713  155.0482   -5.6442 H   0  0  0  0  0  0  0  0  0  0  0  0
   56.7278  159.7265   -4.5649 H   0  0  0  0  0  0  0  0  0  0  0  0
   56.0283  159.6756   -2.9643 H   0  0  0  0  0  0  0  0  0  0  0  0
  1  6  1  0  0  0  0
  1 15  1  0  0  0  0
  1 19  2  0  0  0  0
  2 11  1  0  0  0  0
  2 18  1  0  0  0  0
  2 20  2  0  0  0  0
  3  6  1  0  0  0  0
  3  7  1  0  0  0  0
  4  7  1  0  0  0  0
  4 16  1  0  0  0  0
  5  8  1  0  0  0  0
  5 15  1  0  0  0  0
  6 16  1  0  0  0  0
  7 17  1  0  0  0  0
  8 12  1  0  0  0  0
  8 16  1  0  0  0  0
  9 13  1  0  0  0  0
 10 14  1  0  0  0  0
 11 12  1  0  0  0  0
 13 18  1  0  0  0  0
 14 18  1  0  0  0  0
  3 21  1  0  0  0  0
  3 22  1  0  0  0  0
  4 23  1  0  0  0  0
  4 24  1  0  0  0  0
  5 25  1  0  0  0  0
  5 26  1  0  0  0  0
  6 27  1  0  0  0  0
  7 28  1  0  0  0  0
  8 29  1  0  0  0  0
  9 30  1  0  0  0  0
  9 31  1  0  0  0  0
  9 32  1  0  0  0  0
 10 33  1  0  0  0  0
 10 34  1  0  0  0  0
 10 35  1  0  0  0  0
 11 36  1  0  0  0  0
 11 37  1  0  0  0  0
 12 38  1  0  0  0  0
 12 39  1  0  0  0  0
 13 40  1  0  0  0  0
 13 41  1  0  0  0  0
 14 42  1  0  0  0  0
 14 43  1  0  0  0  0
 15 44  1  0  0  0  0
 17 45  1  0  0  0  0
 17 46  1  0  0  0  0
M  END
> <FRED Chemgauss4 score>
-6.243198

$$$$
C86576375	P135532690
  -OEChem-05122015083D

 28 28  0     1  0  0  0  0  0999 V2000
   56.1027  158.6801   -3.4449 C   0  0  0  0  0  0  0  0  0  0  0  0
   56.1426  157.6924   -4.4227 C   0  0  0  0  0  0  0  0  0  0  0  0
   55.1730  158.5470   -2.4262 C   0  0  0  0  0  0  0  0  0  0  0  0
   55.2641  156.6169   -4.3529 C   0  0  0  0  0  0  0  0  0  0  0  0
   54.3721  156.5760   -3.2934 C   0  0  0  0  0  0  0  0  0  0  0  0
   56.9513  154.0348   -6.7267 C   0  0  0  0  0  0  0  0  0  0  0  0
   58.4420  156.6125   -6.9968 C   0  0  0  0  0  0  0  0  0  0  0  0
   55.3113  155.5374   -5.4255 C   0  0  2  0  0  0  0  0  0  0  0  0
   56.7471  155.3471   -5.9726 C   0  0  2  0  0  0  0  0  0  0  0  0
   54.3036  157.5167   -2.3248 N   0  0  0  0  0  0  0  0  0  0  0  0
   53.4755  155.4812   -3.2177 N   0  0  0  0  0  0  0  0  0  0  0  0
   54.3543  155.8419   -6.4950 N   0  0  0  0  0  0  0  0  0  0  0  0
   57.0437  156.4100   -6.8850 O   0  0  0  0  0  0  0  0  0  0  0  0
   56.7783  159.5270   -3.4790 H   0  0  0  0  0  0  0  0  0  0  0  0
   56.8612  157.7697   -5.2340 H   0  0  0  0  0  0  0  0  0  0  0  0
   55.1003  159.2905   -1.6392 H   0  0  0  0  0  0  0  0  0  0  0  0
   56.2380  153.9199   -7.5475 H   0  0  0  0  0  0  0  0  0  0  0  0
   56.8545  153.1765   -6.0527 H   0  0  0  0  0  0  0  0  0  0  0  0
   57.9626  153.9910   -7.1466 H   0  0  0  0  0  0  0  0  0  0  0  0
   58.6380  157.4274   -7.6979 H   0  0  0  0  0  0  0  0  0  0  0  0
   58.9172  155.6931   -7.3482 H   0  0  0  0  0  0  0  0  0  0  0  0
   58.8428  156.8752   -6.0150 H   0  0  0  0  0  0  0  0  0  0  0  0
   54.9973  154.5901   -4.9671 H   0  0  0  0  0  0  0  0  0  0  0  0
   57.4876  155.4039   -5.1665 H   0  0  0  0  0  0  0  0  0  0  0  0
   53.4810  154.8034   -3.9485 H   0  0  0  0  0  0  0  0  0  0  0  0
   52.7977  155.4642   -2.4871 H   0  0  0  0  0  0  0  0  0  0  0  0
   53.5051  156.2915   -6.2413 H   0  0  0  0  0  0  0  0  0  0  0  0
   54.4973  155.4118   -7.3795 H   0  0  0  0  0  0  0  0  0  0  0  0
  1  2  2  0  0  0  0
  1  3  1  0  0  0  0
  2  4  1  0  0  0  0
  3 10  2  0  0  0  0
  4  5  2  0  0  0  0
  4  8  1  0  0  0  0
  5 10  1  0  0  0  0
  5 11  1  0  0  0  0
  6  9  1  0  0  0  0
  7 13  1  0  0  0  0
  8  9  1  0  0  0  0
  8 12  1  0  0  0  0
  9 13  1  0  0  0  0
  1 14  1  0  0  0  0
  2 15  1  0  0  0  0
  3 16  1  0  0  0  0
  6 17  1  0  0  0  0
  6 18  1  0  0  0  0
  6 19  1  0  0  0  0
  7 20  1  0  0  0  0
  7 21  1  0  0  0  0
  7 22  1  0  0  0  0
  8 23  1  0  0  0  0
  9 24  1  0  0  0  0
 11 25  1  0  0  0  0
 11 26  1  0  0  0  0
 12 27  1  0  0  0  0
 12 28  1  0  0  0  0
M  END
> <FRED Chemgauss4 score>
-6.238390

$$$$
C61698444	P94503117
  -OEChem-05122015083D

 39 40  0     1  0  0  0  0  0999 V2000
   56.1199  158.3961   -4.8865 C   0  0  0  0  0  0  0  0  0  0  0  0
   57.0422  159.4055   -5.1621 C   0  0  0  0  0  0  0  0  0  0  0  0
   57.1806  158.0101   -2.7504 C   0  0  0  0  0  0  0  0  0  0  0  0
   56.1890  157.6984   -3.6806 C   0  0  0  0  0  0  0  0  0  0  0  0
   60.1099  162.5655   -4.5073 C   0  0  0  0  0  0  0  0  0  0  0  0
   58.0338  159.7172   -4.2319 C   0  0  0  0  0  0  0  0  0  0  0  0
   58.1030  159.0195   -3.0260 C   0  0  0  0  0  0  0  0  0  0  0  0
   60.4313  161.7411   -5.6023 C   0  0  0  0  0  0  0  0  0  0  0  0
   59.1307  161.8764   -3.8345 C   0  0  0  0  0  0  0  0  0  0  0  0
   61.4265  161.9913   -6.6595 C   0  0  0  0  0  0  0  0  0  0  0  0
   58.3849  162.2133   -2.6048 C   0  0  0  0  0  0  0  0  0  0  0  0
   62.0784  163.7598   -3.5147 C   0  0  0  0  0  0  0  0  0  0  0  0
   55.2428  155.4669   -4.3998 C   0  0  0  0  0  0  0  0  0  0  0  0
   60.6910  163.8737   -4.1579 C   0  0  0  0  0  0  0  0  0  0  0  0
   55.2020  156.6199   -3.3859 C   0  0  2  0  0  0  0  0  0  0  0  0
   59.7146  160.6143   -5.6273 N   0  0  0  0  0  0  0  0  0  0  0  0
   58.9331  160.7258   -4.5396 N   0  0  0  0  0  0  0  0  0  0  0  0
   53.8463  157.1330   -3.2828 N   0  0  0  0  0  0  0  0  0  0  0  0
   59.3121  159.3696   -1.8407 Cl  0  0  0  0  0  0  0  0  0  0  0  0
   55.3500  158.1608   -5.6166 H   0  0  0  0  0  0  0  0  0  0  0  0
   56.9733  159.9422   -6.1054 H   0  0  0  0  0  0  0  0  0  0  0  0
   57.2276  157.4612   -1.8122 H   0  0  0  0  0  0  0  0  0  0  0  0
   62.4153  161.5888   -6.3814 H   0  0  0  0  0  0  0  0  0  0  0  0
   61.1378  161.5303   -7.6207 H   0  0  0  0  0  0  0  0  0  0  0  0
   61.5520  163.0690   -6.8667 H   0  0  0  0  0  0  0  0  0  0  0  0
   57.4657  162.7738   -2.8399 H   0  0  0  0  0  0  0  0  0  0  0  0
   58.0936  161.3125   -2.0388 H   0  0  0  0  0  0  0  0  0  0  0  0
   58.9856  162.8278   -1.9131 H   0  0  0  0  0  0  0  0  0  0  0  0
   62.0422  163.1198   -2.6266 H   0  0  0  0  0  0  0  0  0  0  0  0
   62.4585  164.7402   -3.2109 H   0  0  0  0  0  0  0  0  0  0  0  0
   62.7955  163.3205   -4.2164 H   0  0  0  0  0  0  0  0  0  0  0  0
   55.0488  155.8356   -5.4130 H   0  0  0  0  0  0  0  0  0  0  0  0
   56.2206  154.9722   -4.4001 H   0  0  0  0  0  0  0  0  0  0  0  0
   54.4944  154.7001   -4.1703 H   0  0  0  0  0  0  0  0  0  0  0  0
   60.7746  164.5274   -5.0489 H   0  0  0  0  0  0  0  0  0  0  0  0
   60.0323  164.4339   -3.4646 H   0  0  0  0  0  0  0  0  0  0  0  0
   55.4043  156.1778   -2.3943 H   0  0  0  0  0  0  0  0  0  0  0  0
   53.7085  158.0353   -2.8733 H   0  0  0  0  0  0  0  0  0  0  0  0
   53.0853  156.5006   -3.4304 H   0  0  0  0  0  0  0  0  0  0  0  0
  1  2  2  0  0  0  0
  1  4  1  0  0  0  0
  2  6  1  0  0  0  0
  3  4  2  0  0  0  0
  3  7  1  0  0  0  0
  4 15  1  0  0  0  0
  5  8  1  0  0  0  0
  5  9  2  0  0  0  0
  5 14  1  0  0  0  0
  6  7  2  0  0  0  0
  6 17  1  0  0  0  0
  7 19  1  0  0  0  0
  8 10  1  0  0  0  0
  8 16  2  0  0  0  0
  9 11  1  0  0  0  0
  9 17  1  0  0  0  0
 12 14  1  0  0  0  0
 13 15  1  0  0  0  0
 15 18  1  0  0  0  0
 16 17  1  0  0  0  0
  1 20  1  0  0  0  0
  2 21  1  0  0  0  0
  3 22  1  0  0  0  0
 10 23  1  0  0  0  0
 10 24  1  0  0  0  0
 10 25  1  0  0  0  0
 11 26  1  0  0  0  0
 11 27  1  0  0  0  0
 11 28  1  0  0  0  0
 12 29  1  0  0  0  0
 12 30  1  0  0  0  0
 12 31  1  0  0  0  0
 13 32  1  0  0  0  0
 13 33  1  0  0  0  0
 13 34  1  0  0  0  0
 14 35  1  0  0  0  0
 14 36  1  0  0  0  0
 15 37  1  0  0  0  0
 18 38  1  0  0  0  0
 18 39  1  0  0  0  0
M  END
> <FRED Chemgauss4 score>
-6.234447

$$$$
C86313331	P135162295
  -OEChem-05122015083D

 32 31  0     1  0  0  0  0  0999 V2000
   59.5514  153.6926   -6.6630 C   0  0  0  0  0  0  0  0  0  0  0  0
   54.5747  158.7636   -4.5267 C   0  0  0  0  0  0  0  0  0  0  0  0
   56.5654  159.5726   -5.8355 C   0  0  0  0  0  0  0  0  0  0  0  0
   55.4624  156.6848   -6.5823 C   0  0  0  0  0  0  0  0  0  0  0  0
   58.4870  157.1197   -4.4219 C   0  0  0  0  0  0  0  0  0  0  0  0
   59.3347  155.0964   -6.2831 C   0  0  0  0  0  0  0  0  0  0  0  0
   57.8714  155.3805   -5.9609 C   0  0  0  0  0  0  0  0  0  0  0  0
   56.0508  158.5130   -4.8564 C   0  0  2  0  0  0  0  0  0  0  0  0
   56.2645  157.0524   -5.3320 C   0  0  2  0  0  0  0  0  0  0  0  0
   59.7245  152.5851   -6.9631 N   0  0  0  0  0  0  0  0  0  0  0  0
   52.5248  159.5334   -5.4665 N   0  0  0  0  0  0  0  0  0  0  0  0
   53.8705  159.2643   -5.6089 N   0  0  0  0  0  0  0  0  0  0  0  0
   57.6814  156.7818   -5.5933 N   0  0  1  0  0  0  0  0  0  0  0  0
   54.0943  158.5308   -3.4188 O   0  0  0  0  0  0  0  0  0  0  0  0
   56.0488  159.4833   -6.7982 H   0  0  0  0  0  0  0  0  0  0  0  0
   56.3882  160.5895   -5.4710 H   0  0  0  0  0  0  0  0  0  0  0  0
   57.6362  159.4568   -6.0273 H   0  0  0  0  0  0  0  0  0  0  0  0
   55.7245  157.3328   -7.4247 H   0  0  0  0  0  0  0  0  0  0  0  0
   55.6756  155.6535   -6.8873 H   0  0  0  0  0  0  0  0  0  0  0  0
   54.3824  156.7605   -6.4178 H   0  0  0  0  0  0  0  0  0  0  0  0
   58.3389  158.1691   -4.1540 H   0  0  0  0  0  0  0  0  0  0  0  0
   59.5474  156.9565   -4.6325 H   0  0  0  0  0  0  0  0  0  0  0  0
   58.1985  156.4954   -3.5719 H   0  0  0  0  0  0  0  0  0  0  0  0
   59.6469  155.7406   -7.1134 H   0  0  0  0  0  0  0  0  0  0  0  0
   59.9691  155.3483   -5.4252 H   0  0  0  0  0  0  0  0  0  0  0  0
   57.2543  155.1653   -6.8394 H   0  0  0  0  0  0  0  0  0  0  0  0
   57.5201  154.7404   -5.1440 H   0  0  0  0  0  0  0  0  0  0  0  0
   56.6032  158.6528   -3.9154 H   0  0  0  0  0  0  0  0  0  0  0  0
   55.9534  156.3682   -4.5337 H   0  0  0  0  0  0  0  0  0  0  0  0
   52.3221  160.3442   -6.0501 H   0  0  0  0  0  0  0  0  0  0  0  0
   52.3841  159.8375   -4.5039 H   0  0  0  0  0  0  0  0  0  0  0  0
   54.3036  159.4496   -6.5081 H   0  0  0  0  0  0  0  0  0  0  0  0
  1  6  1  0  0  0  0
  1 10  3  0  0  0  0
  2  8  1  0  0  0  0
  2 12  1  0  0  0  0
  2 14  2  0  0  0  0
  3  8  1  0  0  0  0
  4  9  1  0  0  0  0
  5 13  1  0  0  0  0
  6  7  1  0  0  0  0
  7 13  1  0  0  0  0
  8  9  1  0  0  0  0
  9 13  1  0  0  0  0
 11 12  1  0  0  0  0
  3 15  1  0  0  0  0
  3 16  1  0  0  0  0
  3 17  1  0  0  0  0
  4 18  1  0  0  0  0
  4 19  1  0  0  0  0
  4 20  1  0  0  0  0
  5 21  1  0  0  0  0
  5 22  1  0  0  0  0
  5 23  1  0  0  0  0
  6 24  1  0  0  0  0
  6 25  1  0  0  0  0
  7 26  1  0  0  0  0
  7 27  1  0  0  0  0
  8 28  1  0  0  0  0
  9 29  1  0  0  0  0
 11 30  1  0  0  0  0
 11 31  1  0  0  0  0
 12 32  1  0  0  0  0
M  END
> <FRED Chemgauss4 score>
-6.229746

$$$$
C87580198	P137000610
  -OEChem-05122015083D

 26 27  0     1  0  0  0  0  0999 V2000
   55.8933  158.6413   -2.0136 C   0  0  0  0  0  0  0  0  0  0  0  0
   54.5621  157.2453   -2.7611 C   0  0  0  0  0  0  0  0  0  0  0  0
   58.7922  160.8350   -0.6779 C   0  0  0  0  0  0  0  0  0  0  0  0
   58.8450  160.2681   -2.0690 C   0  0  0  0  0  0  0  0  0  0  0  0
   57.9801  159.6180   -1.0247 C   0  0  0  0  0  0  0  0  0  0  0  0
   56.4963  159.7081   -1.1174 C   0  0  0  0  0  0  0  0  0  0  0  0
   53.3141  156.0346   -4.6002 C   0  0  0  0  0  0  0  0  0  0  0  0
   53.4638  156.3254   -3.0866 C   0  0  1  0  0  0  0  0  0  0  0  0
   54.6712  158.0876   -1.7650 N   0  0  0  0  0  0  0  0  0  0  0  0
   56.5278  158.1856   -3.0979 N   0  0  0  0  0  0  0  0  0  0  0  0
   53.5703  155.0539   -2.3695 N   0  0  0  0  0  0  0  0  0  0  0  0
   55.6273  157.2402   -3.6047 O   0  0  0  0  0  0  0  0  0  0  0  0
   52.0015  155.5686   -4.8959 O   0  0  0  0  0  0  0  0  0  0  0  0
   59.6673  160.7139   -0.0515 H   0  0  0  0  0  0  0  0  0  0  0  0
   58.2635  161.7693   -0.5342 H   0  0  0  0  0  0  0  0  0  0  0  0
   58.3519  160.8224   -2.8581 H   0  0  0  0  0  0  0  0  0  0  0  0
   59.7554  159.7670   -2.3740 H   0  0  0  0  0  0  0  0  0  0  0  0
   58.3055  158.6655   -0.6243 H   0  0  0  0  0  0  0  0  0  0  0  0
   56.1766  160.6992   -1.4954 H   0  0  0  0  0  0  0  0  0  0  0  0
   56.0254  159.6273   -0.1178 H   0  0  0  0  0  0  0  0  0  0  0  0
   53.4765  156.9537   -5.1740 H   0  0  0  0  0  0  0  0  0  0  0  0
   54.0315  155.2787   -4.9378 H   0  0  0  0  0  0  0  0  0  0  0  0
   52.4820  156.7230   -2.7453 H   0  0  0  0  0  0  0  0  0  0  0  0
   53.1171  154.2589   -2.7611 H   0  0  0  0  0  0  0  0  0  0  0  0
   53.9088  155.0741   -1.4336 H   0  0  0  0  0  0  0  0  0  0  0  0
   51.9735  155.4062   -5.8519 H   0  0  0  0  0  0  0  0  0  0  0  0
  1  6  1  0  0  0  0
  1  9  1  0  0  0  0
  1 10  2  0  0  0  0
  2  8  1  0  0  0  0
  2  9  2  0  0  0  0
  2 12  1  0  0  0  0
  3  4  1  0  0  0  0
  3  5  1  0  0  0  0
  4  5  1  0  0  0  0
  5  6  1  0  0  0  0
  7  8  1  0  0  0  0
  7 13  1  0  0  0  0
  8 11  1  0  0  0  0
 10 12  1  0  0  0  0
  3 14  1  0  0  0  0
  3 15  1  0  0  0  0
  4 16  1  0  0  0  0
  4 17  1  0  0  0  0
  5 18  1  0  0  0  0
  6 19  1  0  0  0  0
  6 20  1  0  0  0  0
  7 21  1  0  0  0  0
  7 22  1  0  0  0  0
  8 23  1  0  0  0  0
 11 24  1  0  0  0  0
 11 25  1  0  0  0  0
 13 26  1  0  0  0  0
M  END
> <FRED Chemgauss4 score>
-6.228454

$$$$
C82915762	P129631292
  -OEChem-05122015083D

 29 29  0     1  0  0  0  0  0999 V2000
   59.9736  153.8927   -7.5218 C   0  0  0  0  0  0  0  0  0  0  0  0
   58.5170  155.3304   -7.1118 C   0  0  0  0  0  0  0  0  0  0  0  0
   53.3657  156.7466   -5.7986 C   0  0  0  0  0  0  0  0  0  0  0  0
   55.8312  154.8947   -5.8617 C   0  0  0  0  0  0  0  0  0  0  0  0
   54.4192  154.4935   -5.4065 C   0  0  0  0  0  0  0  0  0  0  0  0
   56.6351  153.7119   -6.4177 C   0  0  0  0  0  0  0  0  0  0  0  0
   54.2491  156.2124   -3.4793 C   0  0  0  0  0  0  0  0  0  0  0  0
   53.6076  155.6415   -4.7603 C   0  0  1  0  0  0  0  0  0  0  0  0
   59.7625  155.2417   -7.5171 N   0  0  0  0  0  0  0  0  0  0  0  0
   58.9370  153.1410   -7.1450 N   0  0  0  0  0  0  0  0  0  0  0  0
   58.0186  154.0848   -6.8883 N   0  0  0  0  0  0  0  0  0  0  0  0
   54.5651  155.2027   -2.4766 N   0  0  0  0  0  0  0  0  0  0  0  0
   52.3222  155.1340   -4.3770 O   0  0  0  0  0  0  0  0  0  0  0  0
   60.9128  153.4429   -7.8072 H   0  0  0  0  0  0  0  0  0  0  0  0
   57.9488  156.2382   -6.9656 H   0  0  0  0  0  0  0  0  0  0  0  0
   52.7912  157.5721   -5.3621 H   0  0  0  0  0  0  0  0  0  0  0  0
   52.8201  156.3794   -6.6732 H   0  0  0  0  0  0  0  0  0  0  0  0
   54.3149  157.1788   -6.1350 H   0  0  0  0  0  0  0  0  0  0  0  0
   55.7734  155.6873   -6.6157 H   0  0  0  0  0  0  0  0  0  0  0  0
   56.3833  155.3063   -5.0085 H   0  0  0  0  0  0  0  0  0  0  0  0
   53.8594  154.0809   -6.2542 H   0  0  0  0  0  0  0  0  0  0  0  0
   54.5243  153.6829   -4.6726 H   0  0  0  0  0  0  0  0  0  0  0  0
   56.7348  152.9476   -5.6362 H   0  0  0  0  0  0  0  0  0  0  0  0
   56.0747  153.2330   -7.2304 H   0  0  0  0  0  0  0  0  0  0  0  0
   53.5900  156.9664   -3.0331 H   0  0  0  0  0  0  0  0  0  0  0  0
   55.1656  156.7570   -3.7406 H   0  0  0  0  0  0  0  0  0  0  0  0
   53.9118  154.4622   -2.3306 H   0  0  0  0  0  0  0  0  0  0  0  0
   55.3077  155.3901   -1.8363 H   0  0  0  0  0  0  0  0  0  0  0  0
   51.8383  155.8848   -4.0059 H   0  0  0  0  0  0  0  0  0  0  0  0
  1  9  1  0  0  0  0
  1 10  2  0  0  0  0
  2  9  2  0  0  0  0
  2 11  1  0  0  0  0
  3  8  1  0  0  0  0
  4  5  1  0  0  0  0
  4  6  1  0  0  0  0
  5  8  1  0  0  0  0
  6 11  1  0  0  0  0
  7  8  1  0  0  0  0
  7 12  1  0  0  0  0
  8 13  1  0  0  0  0
 10 11  1  0  0  0  0
  1 14  1  0  0  0  0
  2 15  1  0  0  0  0
  3 16  1  0  0  0  0
  3 17  1  0  0  0  0
  3 18  1  0  0  0  0
  4 19  1  0  0  0  0
  4 20  1  0  0  0  0
  5 21  1  0  0  0  0
  5 22  1  0  0  0  0
  6 23  1  0  0  0  0
  6 24  1  0  0  0  0
  7 25  1  0  0  0  0
  7 26  1  0  0  0  0
 12 27  1  0  0  0  0
 12 28  1  0  0  0  0
 13 29  1  0  0  0  0
M  END
> <FRED Chemgauss4 score>
-6.228452

$$$$
C67844972	P104163880
  -OEChem-05122015083D

 38 39  0     1  0  0  0  0  0999 V2000
   59.2143  153.7768   -7.1653 C   0  0  0  0  0  0  0  0  0  0  0  0
   59.9684  154.9459   -7.2406 C   0  0  0  0  0  0  0  0  0  0  0  0
   57.9399  156.2546   -7.1564 C   0  0  0  0  0  0  0  0  0  0  0  0
   57.1665  155.0870   -7.0565 C   0  0  0  0  0  0  0  0  0  0  0  0
   57.8196  153.8450   -7.0932 C   0  0  0  0  0  0  0  0  0  0  0  0
   59.3313  156.1839   -7.2434 C   0  0  0  0  0  0  0  0  0  0  0  0
   53.9799  156.8164   -6.1816 C   0  0  0  0  0  0  0  0  0  0  0  0
   55.0808  153.8082   -6.5537 C   0  0  0  0  0  0  0  0  0  0  0  0
   55.7697  152.7077   -7.3411 C   0  0  0  0  0  0  0  0  0  0  0  0
   55.6607  155.1614   -6.9622 C   0  0  1  0  0  0  0  0  0  0  0  0
   52.7778  158.9125   -5.5113 C   0  0  0  0  0  0  0  0  0  0  0  0
   55.2019  157.7925   -2.3096 C   0  0  0  0  0  0  0  0  0  0  0  0
   53.7236  157.8115   -5.0575 C   0  0  1  0  0  0  0  0  0  0  0  0
   55.2053  156.1801   -6.0451 N   0  0  0  0  0  0  0  0  0  0  0  0
   53.1841  157.0873   -3.9369 N   0  0  0  0  0  0  0  0  0  0  0  0
   53.1666  156.5897   -7.0751 O   0  0  0  0  0  0  0  0  0  0  0  0
   55.1220  155.4378   -3.4494 O   0  0  0  0  0  0  0  0  0  0  0  0
   53.4765  155.9640   -1.6132 O   0  0  0  0  0  0  0  0  0  0  0  0
   57.1653  152.6401   -7.0361 O   0  0  0  0  0  0  0  0  0  0  0  0
   54.2403  156.3716   -2.7768 S   0  0  0  0  0  0  0  0  0  0  0  0
   60.3504  157.7707   -7.3718 Br  0  0  0  0  0  0  0  0  0  0  0  0
   59.7189  152.8143   -7.1590 H   0  0  0  0  0  0  0  0  0  0  0  0
   61.0512  154.8745   -7.2977 H   0  0  0  0  0  0  0  0  0  0  0  0
   57.4423  157.2231   -7.1705 H   0  0  0  0  0  0  0  0  0  0  0  0
   54.0117  153.7946   -6.7946 H   0  0  0  0  0  0  0  0  0  0  0  0
   55.1877  153.6402   -5.4786 H   0  0  0  0  0  0  0  0  0  0  0  0
   55.3178  151.7271   -7.1634 H   0  0  0  0  0  0  0  0  0  0  0  0
   55.6850  152.9163   -8.4109 H   0  0  0  0  0  0  0  0  0  0  0  0
   55.2373  155.4229   -7.9447 H   0  0  0  0  0  0  0  0  0  0  0  0
   51.8193  158.4993   -5.8461 H   0  0  0  0  0  0  0  0  0  0  0  0
   52.5687  159.6159   -4.6986 H   0  0  0  0  0  0  0  0  0  0  0  0
   53.2072  159.4752   -6.3473 H   0  0  0  0  0  0  0  0  0  0  0  0
   55.9321  157.4829   -1.5601 H   0  0  0  0  0  0  0  0  0  0  0  0
   55.7053  158.1751   -3.1987 H   0  0  0  0  0  0  0  0  0  0  0  0
   54.5272  158.5447   -1.8982 H   0  0  0  0  0  0  0  0  0  0  0  0
   54.6748  158.2430   -4.7271 H   0  0  0  0  0  0  0  0  0  0  0  0
   55.8332  156.4586   -5.2973 H   0  0  0  0  0  0  0  0  0  0  0  0
   52.2952  157.4629   -3.5416 H   0  0  0  0  0  0  0  0  0  0  0  0
  1  2  1  0  0  0  0
  1  5  2  0  0  0  0
  2  6  2  0  0  0  0
  3  4  2  0  0  0  0
  3  6  1  0  0  0  0
  4  5  1  0  0  0  0
  4 10  1  0  0  0  0
  5 19  1  0  0  0  0
  6 21  1  0  0  0  0
  7 13  1  0  0  0  0
  7 14  1  0  0  0  0
  7 16  2  0  0  0  0
  8  9  1  0  0  0  0
  8 10  1  0  0  0  0
  9 19  1  0  0  0  0
 10 14  1  0  0  0  0
 11 13  1  0  0  0  0
 12 20  1  0  0  0  0
 13 15  1  0  0  0  0
 15 20  1  0  0  0  0
 17 20  2  0  0  0  0
 18 20  2  0  0  0  0
  1 22  1  0  0  0  0
  2 23  1  0  0  0  0
  3 24  1  0  0  0  0
  8 25  1  0  0  0  0
  8 26  1  0  0  0  0
  9 27  1  0  0  0  0
  9 28  1  0  0  0  0
 10 29  1  0  0  0  0
 11 30  1  0  0  0  0
 11 31  1  0  0  0  0
 11 32  1  0  0  0  0
 12 33  1  0  0  0  0
 12 34  1  0  0  0  0
 12 35  1  0  0  0  0
 13 36  1  0  0  0  0
 14 37  1  0  0  0  0
 15 38  1  0  0  0  0
M  END
> <FRED Chemgauss4 score>
-6.227478

$$$$
C82563966	P129028527
  -OEChem-05122015083D

 19 19  0     0  0  0  0  0  0999 V2000
   55.1576  156.2277   -4.1502 C   0  0  0  0  0  0  0  0  0  0  0  0
   54.1925  157.5728   -2.9098 C   0  0  0  0  0  0  0  0  0  0  0  0
   55.9835  155.6822   -5.2879 C   0  0  0  0  0  0  0  0  0  0  0  0
   55.2250  155.5925   -6.6187 C   0  0  0  0  0  0  0  0  0  0  0  0
   53.9550  154.7476   -6.5929 C   0  0  0  0  0  0  0  0  0  0  0  0
   54.9322  157.5639   -3.9898 N   0  0  0  0  0  0  0  0  0  0  0  0
   54.5996  155.4303   -3.2346 N   0  0  0  0  0  0  0  0  0  0  0  0
   52.9630  155.3213   -5.6540 N   0  3  0  0  0  0  0  0  0  0  0  0
   53.7701  158.5972   -2.4218 O   0  5  0  0  0  0  0  0  0  0  0  0
   53.9459  156.3400   -2.3940 O   0  0  0  0  0  0  0  0  0  0  0  0
   56.8993  156.2727   -5.4096 H   0  0  0  0  0  0  0  0  0  0  0  0
   56.3253  154.6770   -5.0075 H   0  0  0  0  0  0  0  0  0  0  0  0
   55.8897  155.1887   -7.3926 H   0  0  0  0  0  0  0  0  0  0  0  0
   54.9689  156.6113   -6.9368 H   0  0  0  0  0  0  0  0  0  0  0  0
   53.4796  154.7380   -7.5784 H   0  0  0  0  0  0  0  0  0  0  0  0
   54.1389  153.7167   -6.2782 H   0  0  0  0  0  0  0  0  0  0  0  0
   53.1545  155.0272   -4.6896 H   0  0  0  0  0  0  0  0  0  0  0  0
   52.0118  155.0177   -5.8922 H   0  0  0  0  0  0  0  0  0  0  0  0
   52.9812  156.3473   -5.6795 H   0  0  0  0  0  0  0  0  0  0  0  0
  1  3  1  0  0  0  0
  1  6  1  0  0  0  0
  1  7  2  0  0  0  0
  2  6  2  0  0  0  0
  2  9  1  0  0  0  0
  2 10  1  0  0  0  0
  3  4  1  0  0  0  0
  4  5  1  0  0  0  0
  5  8  1  0  0  0  0
  7 10  1  0  0  0  0
  3 11  1  0  0  0  0
  3 12  1  0  0  0  0
  4 13  1  0  0  0  0
  4 14  1  0  0  0  0
  5 15  1  0  0  0  0
  5 16  1  0  0  0  0
  8 17  1  0  0  0  0
  8 18  1  0  0  0  0
  8 19  1  0  0  0  0
M  CHG  2   8   1   9  -1
M  END
> <FRED Chemgauss4 score>
-6.225040

$$$$
C67783339	P104079223
  -OEChem-05122015083D

 43 44  0     1  0  0  0  0  0999 V2000
   58.2101  161.4876   -4.2951 C   0  0  0  0  0  0  0  0  0  0  0  0
   59.2932  162.3662   -4.3147 C   0  0  0  0  0  0  0  0  0  0  0  0
   58.9127  160.6695   -2.1332 C   0  0  0  0  0  0  0  0  0  0  0  0
   58.0197  160.6393   -3.2043 C   0  0  0  0  0  0  0  0  0  0  0  0
   59.9959  161.5480   -2.1527 C   0  0  0  0  0  0  0  0  0  0  0  0
   60.1862  162.3964   -3.2435 C   0  0  0  0  0  0  0  0  0  0  0  0
   55.3706  158.0816   -2.5179 C   0  0  0  0  0  0  0  0  0  0  0  0
   56.5935  158.8481   -2.1852 C   0  0  0  0  0  0  0  0  0  0  0  0
   51.8253  159.1641   -7.1187 C   0  0  0  0  0  0  0  0  0  0  0  0
   56.8275  157.0965   -5.6841 C   0  0  0  0  0  0  0  0  0  0  0  0
   55.5780  156.7841   -6.5078 C   0  0  0  0  0  0  0  0  0  0  0  0
   56.6389  156.7069   -4.2207 C   0  0  0  0  0  0  0  0  0  0  0  0
   54.1930  157.0320   -4.4138 C   0  0  0  0  0  0  0  0  0  0  0  0
   54.3322  157.4354   -5.8873 C   0  0  2  0  0  0  0  0  0  0  0  0
   50.6756  159.9923   -6.6490 C   0  0  0  0  0  0  0  0  0  0  0  0
   53.0774  157.0628   -6.6723 C   0  0  0  0  0  0  0  0  0  0  0  0
   55.4224  157.3167   -3.6742 N   0  0  0  0  0  0  0  0  0  0  0  0
   56.9202  159.7468   -3.1846 N   0  0  0  0  0  0  0  0  0  0  0  0
   52.0375  157.9948   -6.3912 N   0  0  0  0  0  0  0  0  0  0  0  0
   54.4402  158.2054   -1.7322 O   0  0  0  0  0  0  0  0  0  0  0  0
   57.1644  158.6307   -1.1253 O   0  0  0  0  0  0  0  0  0  0  0  0
   52.4894  159.5407   -8.0773 O   0  0  0  0  0  0  0  0  0  0  0  0
   60.8449  161.5655   -1.1154 F   0  0  0  0  0  0  0  0  0  0  0  0
   61.5210  163.4831   -3.2743 Cl  0  0  0  0  0  0  0  0  0  0  0  0
   57.5202  161.4731   -5.1353 H   0  0  0  0  0  0  0  0  0  0  0  0
   59.4281  163.0213   -5.1718 H   0  0  0  0  0  0  0  0  0  0  0  0
   58.7743  160.0129   -1.2779 H   0  0  0  0  0  0  0  0  0  0  0  0
   57.6907  156.5672   -6.1022 H   0  0  0  0  0  0  0  0  0  0  0  0
   57.0417  158.1705   -5.7502 H   0  0  0  0  0  0  0  0  0  0  0  0
   55.7187  157.1431   -7.5341 H   0  0  0  0  0  0  0  0  0  0  0  0
   55.4438  155.6963   -6.5645 H   0  0  0  0  0  0  0  0  0  0  0  0
   56.5267  155.6203   -4.1260 H   0  0  0  0  0  0  0  0  0  0  0  0
   57.5254  156.9938   -3.6498 H   0  0  0  0  0  0  0  0  0  0  0  0
   53.3460  157.5563   -3.9577 H   0  0  0  0  0  0  0  0  0  0  0  0
   54.0001  155.9563   -4.3189 H   0  0  0  0  0  0  0  0  0  0  0  0
   54.4573  158.5255   -5.9376 H   0  0  0  0  0  0  0  0  0  0  0  0
   50.9726  160.7303   -5.8866 H   0  0  0  0  0  0  0  0  0  0  0  0
   50.2212  160.5807   -7.4623 H   0  0  0  0  0  0  0  0  0  0  0  0
   49.8424  159.4296   -6.1984 H   0  0  0  0  0  0  0  0  0  0  0  0
   52.7611  156.0721   -6.3730 H   0  0  0  0  0  0  0  0  0  0  0  0
   53.3032  157.0868   -7.7300 H   0  0  0  0  0  0  0  0  0  0  0  0
   56.3182  159.7883   -4.0045 H   0  0  0  0  0  0  0  0  0  0  0  0
   51.4081  157.7934   -5.6073 H   0  0  0  0  0  0  0  0  0  0  0  0
  1  2  2  0  0  0  0
  1  4  1  0  0  0  0
  2  6  1  0  0  0  0
  3  4  2  0  0  0  0
  3  5  1  0  0  0  0
  4 18  1  0  0  0  0
  5  6  2  0  0  0  0
  5 23  1  0  0  0  0
  6 24  1  0  0  0  0
  7  8  1  0  0  0  0
  7 17  1  0  0  0  0
  7 20  2  0  0  0  0
  8 18  1  0  0  0  0
  8 21  2  0  0  0  0
  9 15  1  0  0  0  0
  9 19  1  0  0  0  0
  9 22  2  0  0  0  0
 10 11  1  0  0  0  0
 10 12  1  0  0  0  0
 11 14  1  0  0  0  0
 12 17  1  0  0  0  0
 13 14  1  0  0  0  0
 13 17  1  0  0  0  0
 14 16  1  0  0  0  0
 16 19  1  0  0  0  0
  1 25  1  0  0  0  0
  2 26  1  0  0  0  0
  3 27  1  0  0  0  0
 10 28  1  0  0  0  0
 10 29  1  0  0  0  0
 11 30  1  0  0  0  0
 11 31  1  0  0  0  0
 12 32  1  0  0  0  0
 12 33  1  0  0  0  0
 13 34  1  0  0  0  0
 13 35  1  0  0  0  0
 14 36  1  0  0  0  0
 15 37  1  0  0  0  0
 15 38  1  0  0  0  0
 15 39  1  0  0  0  0
 16 40  1  0  0  0  0
 16 41  1  0  0  0  0
 18 42  1  0  0  0  0
 19 43  1  0  0  0  0
M  END
> <FRED Chemgauss4 score>
-6.223308

$$$$
C87602094	P137029746
  -OEChem-05122015083D

 21 22  0     1  0  0  0  0  0999 V2000
   57.5735  158.3365   -1.4591 C   0  0  0  0  0  0  0  0  0  0  0  0
   56.2091  158.4541   -1.4236 C   0  0  0  0  0  0  0  0  0  0  0  0
   55.2608  157.7246   -2.2891 C   0  0  0  0  0  0  0  0  0  0  0  0
   54.0769  156.5682   -3.9707 C   0  0  0  0  0  0  0  0  0  0  0  0
   54.4698  154.6481   -5.5682 C   0  0  0  0  0  0  0  0  0  0  0  0
   53.6198  155.8706   -5.2311 C   0  0  1  0  0  0  0  0  0  0  0  0
   57.0473  159.7514    0.0570 N   0  5  0  0  0  0  0  0  0  0  0  0
   58.1174  159.1457   -0.5335 N   0  0  0  0  0  0  0  0  0  0  0  0
   55.8601  159.3406   -0.4751 N   0  0  0  0  0  0  0  0  0  0  0  0
   54.0453  157.4058   -1.8984 N   0  0  0  0  0  0  0  0  0  0  0  0
   53.3511  156.7266   -2.8844 N   0  0  0  0  0  0  0  0  0  0  0  0
   52.1897  155.4382   -5.1652 N   0  3  0  0  0  0  0  0  0  0  0  0
   55.6572  157.2287   -3.8825 S   0  0  0  0  0  0  0  0  0  0  0  0
   58.1712  157.7090   -2.1067 H   0  0  0  0  0  0  0  0  0  0  0  0
   54.4705  153.9110   -4.7576 H   0  0  0  0  0  0  0  0  0  0  0  0
   54.0956  154.1499   -6.4696 H   0  0  0  0  0  0  0  0  0  0  0  0
   55.5101  154.9373   -5.7548 H   0  0  0  0  0  0  0  0  0  0  0  0
   53.6590  156.5675   -6.0765 H   0  0  0  0  0  0  0  0  0  0  0  0
   51.6311  155.9539   -5.8473 H   0  0  0  0  0  0  0  0  0  0  0  0
   51.8091  155.6131   -4.2334 H   0  0  0  0  0  0  0  0  0  0  0  0
   52.1110  154.4401   -5.3673 H   0  0  0  0  0  0  0  0  0  0  0  0
  1  2  1  0  0  0  0
  1  8  2  0  0  0  0
  2  3  1  0  0  0  0
  2  9  2  0  0  0  0
  3 10  2  0  0  0  0
  3 13  1  0  0  0  0
  4  6  1  0  0  0  0
  4 11  2  0  0  0  0
  4 13  1  0  0  0  0
  5  6  1  0  0  0  0
  6 12  1  0  0  0  0
  7  8  1  0  0  0  0
  7  9  1  0  0  0  0
 10 11  1  0  0  0  0
  1 14  1  0  0  0  0
  5 15  1  0  0  0  0
  5 16  1  0  0  0  0
  5 17  1  0  0  0  0
  6 18  1  0  0  0  0
 12 19  1  0  0  0  0
 12 20  1  0  0  0  0
 12 21  1  0  0  0  0
M  CHG  2   7  -1  12   1
M  END
> <FRED Chemgauss4 score>
-6.222610

$$$$
C72430167	P112678220
  -OEChem-05122015083D

 42 44  0     0  0  0  0  0  0999 V2000
   56.2276  155.0311   -5.0299 C   0  0  0  0  0  0  0  0  0  0  0  0
   60.3693  162.5952   -4.0359 C   0  0  0  0  0  0  0  0  0  0  0  0
   61.4481  162.5813   -5.9519 C   0  0  0  0  0  0  0  0  0  0  0  0
   55.7618  156.1052   -4.2793 C   0  0  0  0  0  0  0  0  0  0  0  0
   56.0471  157.3955   -4.7451 C   0  0  0  0  0  0  0  0  0  0  0  0
   56.7444  157.5521   -5.9436 C   0  0  0  0  0  0  0  0  0  0  0  0
   61.2723  163.3384   -4.8195 C   0  0  0  0  0  0  0  0  0  0  0  0
   57.1518  156.4115   -6.6167 C   0  0  0  0  0  0  0  0  0  0  0  0
   59.0857  160.1588   -7.1612 C   0  0  0  0  0  0  0  0  0  0  0  0
   55.5487  158.5988   -3.9876 C   0  0  0  0  0  0  0  0  0  0  0  0
   55.0380  155.8921   -2.9782 C   0  0  0  0  0  0  0  0  0  0  0  0
   55.1477  158.2605   -2.5494 C   0  0  0  0  0  0  0  0  0  0  0  0
   57.9038  156.5224   -7.9031 C   0  0  0  0  0  0  0  0  0  0  0  0
   57.0414  158.9054   -6.5002 C   0  0  0  0  0  0  0  0  0  0  0  0
   60.5203  160.3690   -6.7264 C   0  0  0  0  0  0  0  0  0  0  0  0
   56.9134  155.1526   -6.1886 N   0  0  0  0  0  0  0  0  0  0  0  0
   59.9972  161.4536   -4.6210 N   0  0  0  0  0  0  0  0  0  0  0  0
   60.6697  161.4739   -5.7844 N   0  0  0  0  0  0  0  0  0  0  0  0
   54.2929  157.0732   -2.5253 N   0  0  0  0  0  0  0  0  0  0  0  0
   61.8398  164.5246   -4.5310 N   0  0  0  0  0  0  0  0  0  0  0  0
   58.4189  159.2823   -6.3136 N   0  0  0  0  0  0  0  0  0  0  0  0
   58.5901  160.7018   -8.1449 O   0  0  0  0  0  0  0  0  0  0  0  0
   56.0576  154.0078   -4.7092 H   0  0  0  0  0  0  0  0  0  0  0  0
   59.9653  162.8342   -3.0622 H   0  0  0  0  0  0  0  0  0  0  0  0
   62.0449  162.7316   -6.8414 H   0  0  0  0  0  0  0  0  0  0  0  0
   56.3223  159.3747   -3.9513 H   0  0  0  0  0  0  0  0  0  0  0  0
   54.6825  159.0084   -4.5228 H   0  0  0  0  0  0  0  0  0  0  0  0
   54.3281  155.0635   -3.0828 H   0  0  0  0  0  0  0  0  0  0  0  0
   55.7647  155.6037   -2.2091 H   0  0  0  0  0  0  0  0  0  0  0  0
   56.0361  158.0953   -1.9266 H   0  0  0  0  0  0  0  0  0  0  0  0
   54.6089  159.1075   -2.1107 H   0  0  0  0  0  0  0  0  0  0  0  0
   58.9819  156.5609   -7.7099 H   0  0  0  0  0  0  0  0  0  0  0  0
   57.6956  155.6678   -8.5581 H   0  0  0  0  0  0  0  0  0  0  0  0
   57.6143  157.4256   -8.4540 H   0  0  0  0  0  0  0  0  0  0  0  0
   56.8305  158.9438   -7.5774 H   0  0  0  0  0  0  0  0  0  0  0  0
   56.4221  159.6787   -6.0267 H   0  0  0  0  0  0  0  0  0  0  0  0
   61.1455  160.5803   -7.6011 H   0  0  0  0  0  0  0  0  0  0  0  0
   60.9003  159.4601   -6.2462 H   0  0  0  0  0  0  0  0  0  0  0  0
   53.4935  157.2228   -3.1414 H   0  0  0  0  0  0  0  0  0  0  0  0
   61.6135  165.0503   -3.6713 H   0  0  0  0  0  0  0  0  0  0  0  0
   62.4583  165.0166   -5.1958 H   0  0  0  0  0  0  0  0  0  0  0  0
   58.9302  158.8572   -5.5430 H   0  0  0  0  0  0  0  0  0  0  0  0
  1  4  2  0  0  0  0
  1 16  1  0  0  0  0
  2  7  1  0  0  0  0
  2 17  2  0  0  0  0
  3  7  2  0  0  0  0
  3 18  1  0  0  0  0
  4  5  1  0  0  0  0
  4 11  1  0  0  0  0
  5  6  2  0  0  0  0
  5 10  1  0  0  0  0
  6  8  1  0  0  0  0
  6 14  1  0  0  0  0
  7 20  1  0  0  0  0
  8 13  1  0  0  0  0
  8 16  2  0  0  0  0
  9 15  1  0  0  0  0
  9 21  1  0  0  0  0
  9 22  2  0  0  0  0
 10 12  1  0  0  0  0
 11 19  1  0  0  0  0
 12 19  1  0  0  0  0
 14 21  1  0  0  0  0
 15 18  1  0  0  0  0
 17 18  1  0  0  0  0
  1 23  1  0  0  0  0
  2 24  1  0  0  0  0
  3 25  1  0  0  0  0
 10 26  1  0  0  0  0
 10 27  1  0  0  0  0
 11 28  1  0  0  0  0
 11 29  1  0  0  0  0
 12 30  1  0  0  0  0
 12 31  1  0  0  0  0
 13 32  1  0  0  0  0
 13 33  1  0  0  0  0
 13 34  1  0  0  0  0
 14 35  1  0  0  0  0
 14 36  1  0  0  0  0
 15 37  1  0  0  0  0
 15 38  1  0  0  0  0
 19 39  1  0  0  0  0
 20 40  1  0  0  0  0
 20 41  1  0  0  0  0
 21 42  1  0  0  0  0
M  END
> <FRED Chemgauss4 score>
-6.220020

$$$$
C20443548	P30507208
  -OEChem-05122015083D

 20 20  0     1  0  0  0  0  0999 V2000
   57.3858  156.6683   -6.1322 C   0  0  0  0  0  0  0  0  0  0  0  0
   57.1889  155.3559   -6.5075 C   0  0  0  0  0  0  0  0  0  0  0  0
   55.2363  156.5266   -5.7205 C   0  0  0  0  0  0  0  0  0  0  0  0
   53.2732  156.0323   -4.1642 C   0  0  0  0  0  0  0  0  0  0  0  0
   54.1194  156.0844   -2.8964 C   0  0  0  0  0  0  0  0  0  0  0  0
   53.8304  156.9028   -5.3020 C   0  0  2  0  0  0  0  0  0  0  0  0
   56.2672  157.3414   -5.6810 N   0  0  0  0  0  0  0  0  0  0  0  0
   52.9407  156.8673   -6.4429 N   0  0  0  0  0  0  0  0  0  0  0  0
   53.5314  155.2343   -1.9200 O   0  0  0  0  0  0  0  0  0  0  0  0
   55.5404  154.9362   -6.2890 S   0  0  0  0  0  0  0  0  0  0  0  0
   58.3342  157.1873   -6.1679 H   0  0  0  0  0  0  0  0  0  0  0  0
   57.9116  154.6464   -6.8849 H   0  0  0  0  0  0  0  0  0  0  0  0
   52.2549  156.3633   -3.9170 H   0  0  0  0  0  0  0  0  0  0  0  0
   53.1566  154.9877   -4.4819 H   0  0  0  0  0  0  0  0  0  0  0  0
   55.1397  155.7361   -3.0819 H   0  0  0  0  0  0  0  0  0  0  0  0
   54.1559  157.1016   -2.4937 H   0  0  0  0  0  0  0  0  0  0  0  0
   53.8173  157.9477   -4.9673 H   0  0  0  0  0  0  0  0  0  0  0  0
   53.2981  157.1340   -7.3415 H   0  0  0  0  0  0  0  0  0  0  0  0
   51.9544  156.7780   -6.2825 H   0  0  0  0  0  0  0  0  0  0  0  0
   54.0907  155.2891   -1.1285 H   0  0  0  0  0  0  0  0  0  0  0  0
  1  2  2  0  0  0  0
  1  7  1  0  0  0  0
  2 10  1  0  0  0  0
  3  6  1  0  0  0  0
  3  7  2  0  0  0  0
  3 10  1  0  0  0  0
  4  5  1  0  0  0  0
  4  6  1  0  0  0  0
  5  9  1  0  0  0  0
  6  8  1  0  0  0  0
  1 11  1  0  0  0  0
  2 12  1  0  0  0  0
  4 13  1  0  0  0  0
  4 14  1  0  0  0  0
  5 15  1  0  0  0  0
  5 16  1  0  0  0  0
  6 17  1  0  0  0  0
  8 18  1  0  0  0  0
  8 19  1  0  0  0  0
  9 20  1  0  0  0  0
M  END
> <FRED Chemgauss4 score>
-6.218292

$$$$
C44470815	P150394998
  -OEChem-05122015083D

 25 25  0     1  0  0  0  0  0999 V2000
   55.6469  154.1385   -5.5702 C   0  0  0  0  0  0  0  0  0  0  0  0
   56.9388  154.0691   -6.0797 C   0  0  0  0  0  0  0  0  0  0  0  0
   55.9077  156.4942   -5.3716 C   0  0  0  0  0  0  0  0  0  0  0  0
   55.1141  155.3704   -5.2070 C   0  0  0  0  0  0  0  0  0  0  0  0
   57.6506  155.2511   -6.2054 C   0  0  0  0  0  0  0  0  0  0  0  0
   59.4305  153.9276   -7.0634 C   0  0  0  0  0  0  0  0  0  0  0  0
   53.6594  156.0681   -3.2286 C   0  0  0  0  0  0  0  0  0  0  0  0
   53.7063  155.4800   -4.6476 C   0  0  1  0  0  0  0  0  0  0  0  0
   57.1667  156.4662   -5.8632 N   0  0  0  0  0  0  0  0  0  0  0  0
   54.4291  155.2892   -2.2940 N   0  0  0  0  0  0  0  0  0  0  0  0
   52.8509  156.2743   -5.5376 N   0  0  0  0  0  0  0  0  0  0  0  0
   58.9258  155.2085   -6.7051 O   0  0  0  0  0  0  0  0  0  0  0  0
   55.0631  153.2289   -5.4597 H   0  0  0  0  0  0  0  0  0  0  0  0
   57.3687  153.1159   -6.3676 H   0  0  0  0  0  0  0  0  0  0  0  0
   55.5456  157.4825   -5.1056 H   0  0  0  0  0  0  0  0  0  0  0  0
   60.4492  154.0302   -7.4452 H   0  0  0  0  0  0  0  0  0  0  0  0
   58.7872  153.4819   -7.8263 H   0  0  0  0  0  0  0  0  0  0  0  0
   59.4385  153.2882   -6.1775 H   0  0  0  0  0  0  0  0  0  0  0  0
   54.0870  157.0772   -3.2157 H   0  0  0  0  0  0  0  0  0  0  0  0
   52.6392  156.1355   -2.8361 H   0  0  0  0  0  0  0  0  0  0  0  0
   53.2722  154.4724   -4.6076 H   0  0  0  0  0  0  0  0  0  0  0  0
   54.1987  155.3313   -1.3148 H   0  0  0  0  0  0  0  0  0  0  0  0
   55.2990  154.8816   -2.5958 H   0  0  0  0  0  0  0  0  0  0  0  0
   52.0318  156.6804   -5.1491 H   0  0  0  0  0  0  0  0  0  0  0  0
   53.0115  156.2042   -6.5155 H   0  0  0  0  0  0  0  0  0  0  0  0
  1  2  2  0  0  0  0
  1  4  1  0  0  0  0
  2  5  1  0  0  0  0
  3  4  2  0  0  0  0
  3  9  1  0  0  0  0
  4  8  1  0  0  0  0
  5  9  2  0  0  0  0
  5 12  1  0  0  0  0
  6 12  1  0  0  0  0
  7  8  1  0  0  0  0
  7 10  1  0  0  0  0
  8 11  1  0  0  0  0
  1 13  1  0  0  0  0
  2 14  1  0  0  0  0
  3 15  1  0  0  0  0
  6 16  1  0  0  0  0
  6 17  1  0  0  0  0
  6 18  1  0  0  0  0
  7 19  1  0  0  0  0
  7 20  1  0  0  0  0
  8 21  1  0  0  0  0
 10 22  1  0  0  0  0
 10 23  1  0  0  0  0
 11 24  1  0  0  0  0
 11 25  1  0  0  0  0
M  END
> <FRED Chemgauss4 score>
-6.213916

$$$$
C83693137	P130915850
  -OEChem-05122015083D

 25 25  0     0  0  0  0  0  0999 V2000
   58.5155  156.2855   -6.2386 C   0  0  0  0  0  0  0  0  0  0  0  0
   58.4100  157.9987   -7.4972 C   0  0  0  0  0  0  0  0  0  0  0  0
   57.2194  156.7340   -6.1410 C   0  0  0  0  0  0  0  0  0  0  0  0
   56.0318  156.2386   -5.3674 C   0  0  0  0  0  0  0  0  0  0  0  0
   53.1871  155.8621   -5.1453 C   0  0  0  0  0  0  0  0  0  0  0  0
   54.4269  156.1507   -2.9729 C   0  0  0  0  0  0  0  0  0  0  0  0
   53.9812  156.8271   -4.2678 C   0  0  0  0  0  0  0  0  0  0  0  0
   59.2516  157.0773   -7.0841 N   0  0  0  0  0  0  0  0  0  0  0  0
   57.1672  157.8322   -6.9524 N   0  0  0  0  0  0  0  0  0  0  0  0
   55.1311  157.3249   -4.9945 N   0  0  0  0  0  0  0  0  0  0  0  0
   51.8573  155.7581   -4.6490 O   0  0  0  0  0  0  0  0  0  0  0  0
   53.3412  156.1301   -2.0530 O   0  0  0  0  0  0  0  0  0  0  0  0
   58.9585  155.4329   -5.7439 H   0  0  0  0  0  0  0  0  0  0  0  0
   58.6336  158.8046   -8.1818 H   0  0  0  0  0  0  0  0  0  0  0  0
   55.4605  155.5147   -5.9588 H   0  0  0  0  0  0  0  0  0  0  0  0
   56.3449  155.7327   -4.4481 H   0  0  0  0  0  0  0  0  0  0  0  0
   53.6307  154.8613   -5.1218 H   0  0  0  0  0  0  0  0  0  0  0  0
   53.1445  156.2071   -6.1841 H   0  0  0  0  0  0  0  0  0  0  0  0
   55.2654  156.6820   -2.5094 H   0  0  0  0  0  0  0  0  0  0  0  0
   54.7248  155.1139   -3.1597 H   0  0  0  0  0  0  0  0  0  0  0  0
   53.3786  157.7143   -4.0397 H   0  0  0  0  0  0  0  0  0  0  0  0
   56.3587  158.4161   -7.1220 H   0  0  0  0  0  0  0  0  0  0  0  0
   55.6423  157.9926   -4.4131 H   0  0  0  0  0  0  0  0  0  0  0  0
   51.3904  155.1390   -5.2323 H   0  0  0  0  0  0  0  0  0  0  0  0
   53.6658  155.6944   -1.2491 H   0  0  0  0  0  0  0  0  0  0  0  0
  1  3  2  0  0  0  0
  1  8  1  0  0  0  0
  2  8  2  0  0  0  0
  2  9  1  0  0  0  0
  3  4  1  0  0  0  0
  3  9  1  0  0  0  0
  4 10  1  0  0  0  0
  5  7  1  0  0  0  0
  5 11  1  0  0  0  0
  6  7  1  0  0  0  0
  6 12  1  0  0  0  0
  7 10  1  0  0  0  0
  1 13  1  0  0  0  0
  2 14  1  0  0  0  0
  4 15  1  0  0  0  0
  4 16  1  0  0  0  0
  5 17  1  0  0  0  0
  5 18  1  0  0  0  0
  6 19  1  0  0  0  0
  6 20  1  0  0  0  0
  7 21  1  0  0  0  0
  9 22  1  0  0  0  0
 10 23  1  0  0  0  0
 11 24  1  0  0  0  0
 12 25  1  0  0  0  0
M  END
> <FRED Chemgauss4 score>
-6.209743

$$$$
C54526408	P82058826
  -OEChem-05122015083D

 33 34  0     1  0  0  0  0  0999 V2000
   54.9486  155.8083   -3.0955 C   0  0  0  0  0  0  0  0  0  0  0  0
   54.6848  157.9044   -3.5915 C   0  0  0  0  0  0  0  0  0  0  0  0
   56.6458  154.3705   -6.2108 C   0  0  0  0  0  0  0  0  0  0  0  0
   57.5568  155.5364   -6.5547 C   0  0  0  0  0  0  0  0  0  0  0  0
   55.2904  155.0264   -5.9717 C   0  0  0  0  0  0  0  0  0  0  0  0
   57.1272  156.6163   -5.5727 C   0  0  0  0  0  0  0  0  0  0  0  0
   55.6043  156.4413   -5.4464 C   0  0  0  0  0  0  0  0  0  0  0  0
   56.2370  160.4081   -2.6696 C   0  0  0  0  0  0  0  0  0  0  0  0
   54.6860  159.1584   -4.3659 C   0  0  2  0  0  0  0  0  0  0  0  0
   54.9433  160.4255   -3.4813 C   0  0  1  0  0  0  0  0  0  0  0  0
   54.4682  156.4086   -2.0300 N   0  0  0  0  0  0  0  0  0  0  0  0
   54.3003  157.7422   -2.3456 N   0  0  0  0  0  0  0  0  0  0  0  0
   55.1007  156.7125   -4.1026 N   0  0  0  0  0  0  0  0  0  0  0  0
   53.4349  159.3319   -5.1463 N   0  0  0  0  0  0  0  0  0  0  0  0
   53.8619  160.5498   -2.5512 O   0  0  0  0  0  0  0  0  0  0  0  0
   55.1946  154.7602   -3.1888 H   0  0  0  0  0  0  0  0  0  0  0  0
   56.6094  153.6205   -7.0060 H   0  0  0  0  0  0  0  0  0  0  0  0
   56.9913  153.8799   -5.2929 H   0  0  0  0  0  0  0  0  0  0  0  0
   58.6159  155.2829   -6.4547 H   0  0  0  0  0  0  0  0  0  0  0  0
   57.3792  155.8673   -7.5849 H   0  0  0  0  0  0  0  0  0  0  0  0
   54.7576  155.1098   -6.9269 H   0  0  0  0  0  0  0  0  0  0  0  0
   54.6671  154.4308   -5.2967 H   0  0  0  0  0  0  0  0  0  0  0  0
   57.6288  156.4637   -4.6087 H   0  0  0  0  0  0  0  0  0  0  0  0
   57.3932  157.6168   -5.9288 H   0  0  0  0  0  0  0  0  0  0  0  0
   55.0835  157.1948   -6.0941 H   0  0  0  0  0  0  0  0  0  0  0  0
   56.3042  159.5258   -2.0269 H   0  0  0  0  0  0  0  0  0  0  0  0
   56.3208  161.3054   -2.0466 H   0  0  0  0  0  0  0  0  0  0  0  0
   57.1053  160.4085   -3.3381 H   0  0  0  0  0  0  0  0  0  0  0  0
   55.5037  159.1458   -5.1227 H   0  0  0  0  0  0  0  0  0  0  0  0
   54.9345  161.3287   -4.1021 H   0  0  0  0  0  0  0  0  0  0  0  0
   53.0375  158.5184   -5.5361 H   0  0  0  0  0  0  0  0  0  0  0  0
   53.1921  160.2536   -5.3979 H   0  0  0  0  0  0  0  0  0  0  0  0
   54.0068  161.3821   -2.0788 H   0  0  0  0  0  0  0  0  0  0  0  0
  1 11  2  0  0  0  0
  1 13  1  0  0  0  0
  2  9  1  0  0  0  0
  2 12  2  0  0  0  0
  2 13  1  0  0  0  0
  3  4  1  0  0  0  0
  3  5  1  0  0  0  0
  4  6  1  0  0  0  0
  5  7  1  0  0  0  0
  6  7  1  0  0  0  0
  7 13  1  0  0  0  0
  8 10  1  0  0  0  0
  9 10  1  0  0  0  0
  9 14  1  0  0  0  0
 10 15  1  0  0  0  0
 11 12  1  0  0  0  0
  1 16  1  0  0  0  0
  3 17  1  0  0  0  0
  3 18  1  0  0  0  0
  4 19  1  0  0  0  0
  4 20  1  0  0  0  0
  5 21  1  0  0  0  0
  5 22  1  0  0  0  0
  6 23  1  0  0  0  0
  6 24  1  0  0  0  0
  7 25  1  0  0  0  0
  8 26  1  0  0  0  0
  8 27  1  0  0  0  0
  8 28  1  0  0  0  0
  9 29  1  0  0  0  0
 10 30  1  0  0  0  0
 14 31  1  0  0  0  0
 14 32  1  0  0  0  0
 15 33  1  0  0  0  0
M  END
> <FRED Chemgauss4 score>
-6.208704

$$$$
C82561209	P129033956
  -OEChem-05122015083D

 28 28  0     1  0  0  0  0  0999 V2000
   56.4910  155.8914   -6.1912 C   0  0  0  0  0  0  0  0  0  0  0  0
   54.8477  155.3784   -5.0441 C   0  0  0  0  0  0  0  0  0  0  0  0
   59.3263  154.7159   -6.4013 C   0  0  0  0  0  0  0  0  0  0  0  0
   58.3192  157.4964   -5.5809 C   0  0  0  0  0  0  0  0  0  0  0  0
   58.7604  155.7585   -7.3579 C   0  0  0  0  0  0  0  0  0  0  0  0
   53.9978  155.8778   -2.7131 C   0  0  0  0  0  0  0  0  0  0  0  0
   57.6943  156.6625   -6.7061 C   0  0  1  0  0  0  0  0  0  0  0  0
   53.7318  155.2396   -4.0986 C   0  0  1  0  0  0  0  0  0  0  0  0
   55.7504  156.3226   -5.1294 N   0  0  0  0  0  0  0  0  0  0  0  0
   56.0909  154.7463   -6.7519 N   0  0  0  0  0  0  0  0  0  0  0  0
   52.4786  155.7750   -4.6327 N   0  0  0  0  0  0  0  0  0  0  0  0
   54.9782  154.3979   -5.9758 O   0  0  0  0  0  0  0  0  0  0  0  0
   53.1428  155.3112   -1.7254 O   0  0  0  0  0  0  0  0  0  0  0  0
   58.5150  154.1108   -5.9838 H   0  0  0  0  0  0  0  0  0  0  0  0
   60.0193  154.0379   -6.9085 H   0  0  0  0  0  0  0  0  0  0  0  0
   59.8548  155.1926   -5.5696 H   0  0  0  0  0  0  0  0  0  0  0  0
   58.6911  156.8681   -4.7643 H   0  0  0  0  0  0  0  0  0  0  0  0
   59.1629  158.0835   -5.9595 H   0  0  0  0  0  0  0  0  0  0  0  0
   57.5888  158.1960   -5.1588 H   0  0  0  0  0  0  0  0  0  0  0  0
   59.5850  156.3547   -7.7663 H   0  0  0  0  0  0  0  0  0  0  0  0
   58.3090  155.2296   -8.2068 H   0  0  0  0  0  0  0  0  0  0  0  0
   55.0317  155.6849   -2.4063 H   0  0  0  0  0  0  0  0  0  0  0  0
   53.8330  156.9607   -2.7302 H   0  0  0  0  0  0  0  0  0  0  0  0
   57.3534  157.3726   -7.4721 H   0  0  0  0  0  0  0  0  0  0  0  0
   53.4861  154.1708   -3.9094 H   0  0  0  0  0  0  0  0  0  0  0  0
   51.7779  156.0555   -3.9837 H   0  0  0  0  0  0  0  0  0  0  0  0
   52.2949  155.6500   -5.6030 H   0  0  0  0  0  0  0  0  0  0  0  0
   53.3579  155.7502   -0.8874 H   0  0  0  0  0  0  0  0  0  0  0  0
  1  7  1  0  0  0  0
  1  9  1  0  0  0  0
  1 10  2  0  0  0  0
  2  8  1  0  0  0  0
  2  9  2  0  0  0  0
  2 12  1  0  0  0  0
  3  5  1  0  0  0  0
  4  7  1  0  0  0  0
  5  7  1  0  0  0  0
  6  8  1  0  0  0  0
  6 13  1  0  0  0  0
  8 11  1  0  0  0  0
 10 12  1  0  0  0  0
  3 14  1  0  0  0  0
  3 15  1  0  0  0  0
  3 16  1  0  0  0  0
  4 17  1  0  0  0  0
  4 18  1  0  0  0  0
  4 19  1  0  0  0  0
  5 20  1  0  0  0  0
  5 21  1  0  0  0  0
  6 22  1  0  0  0  0
  6 23  1  0  0  0  0
  7 24  1  0  0  0  0
  8 25  1  0  0  0  0
 11 26  1  0  0  0  0
 11 27  1  0  0  0  0
 13 28  1  0  0  0  0
M  END
> <FRED Chemgauss4 score>
-6.208547

$$$$
C79095671	P123477401
  -OEChem-05122015083D

 31 32  0     0  0  0  0  0  0999 V2000
   58.1819  162.3728   -3.6268 C   0  0  0  0  0  0  0  0  0  0  0  0
   55.9299  161.5337   -3.8749 C   0  0  0  0  0  0  0  0  0  0  0  0
   57.6768  163.6167   -3.2485 C   0  0  0  0  0  0  0  0  0  0  0  0
   55.4248  162.7776   -3.4966 C   0  0  0  0  0  0  0  0  0  0  0  0
   57.3085  161.3313   -3.9400 C   0  0  0  0  0  0  0  0  0  0  0  0
   56.2982  163.8192   -3.1834 C   0  0  0  0  0  0  0  0  0  0  0  0
   54.9812  156.8031   -6.0775 C   0  0  0  0  0  0  0  0  0  0  0  0
   53.8915  157.0081   -4.0920 C   0  0  0  0  0  0  0  0  0  0  0  0
   57.8465  160.0063   -4.3425 C   0  0  0  0  0  0  0  0  0  0  0  0
   53.5325  157.0678   -6.4226 C   0  0  0  0  0  0  0  0  0  0  0  0
   56.3537  156.5557   -4.0006 C   0  0  0  0  0  0  0  0  0  0  0  0
   57.4242  157.5618   -4.3885 C   0  0  0  0  0  0  0  0  0  0  0  0
   52.9532  157.1780   -5.1129 N   0  0  0  0  0  0  0  0  0  0  0  0
   55.1082  156.7830   -4.7060 N   0  0  0  0  0  0  0  0  0  0  0  0
   57.0329  158.9106   -4.0799 N   0  0  0  0  0  0  0  0  0  0  0  0
   55.8610  156.6397   -6.9123 O   0  0  0  0  0  0  0  0  0  0  0  0
   53.6539  157.0557   -2.8921 O   0  0  0  0  0  0  0  0  0  0  0  0
   58.9610  159.9417   -4.8545 O   0  0  0  0  0  0  0  0  0  0  0  0
   55.5460  165.6720   -2.6199 I   0  0  0  0  0  0  0  0  0  0  0  0
   59.2579  162.2260   -3.6744 H   0  0  0  0  0  0  0  0  0  0  0  0
   55.2404  160.7290   -4.1168 H   0  0  0  0  0  0  0  0  0  0  0  0
   58.3749  164.4147   -3.0085 H   0  0  0  0  0  0  0  0  0  0  0  0
   54.3472  162.9140   -3.4524 H   0  0  0  0  0  0  0  0  0  0  0  0
   53.4152  158.0112   -6.9581 H   0  0  0  0  0  0  0  0  0  0  0  0
   53.0871  156.2249   -6.9534 H   0  0  0  0  0  0  0  0  0  0  0  0
   56.1350  156.5984   -2.9288 H   0  0  0  0  0  0  0  0  0  0  0  0
   56.6829  155.5419   -4.2488 H   0  0  0  0  0  0  0  0  0  0  0  0
   58.3491  157.3618   -3.8388 H   0  0  0  0  0  0  0  0  0  0  0  0
   57.6415  157.5194   -5.4606 H   0  0  0  0  0  0  0  0  0  0  0  0
   51.9682  157.3598   -4.9470 H   0  0  0  0  0  0  0  0  0  0  0  0
   56.1477  159.0427   -3.5946 H   0  0  0  0  0  0  0  0  0  0  0  0
  1  3  1  0  0  0  0
  1  5  2  0  0  0  0
  2  4  2  0  0  0  0
  2  5  1  0  0  0  0
  3  6  2  0  0  0  0
  4  6  1  0  0  0  0
  5  9  1  0  0  0  0
  6 19  1  0  0  0  0
  7 10  1  0  0  0  0
  7 14  1  0  0  0  0
  7 16  2  0  0  0  0
  8 13  1  0  0  0  0
  8 14  1  0  0  0  0
  8 17  2  0  0  0  0
  9 15  1  0  0  0  0
  9 18  2  0  0  0  0
 10 13  1  0  0  0  0
 11 12  1  0  0  0  0
 11 14  1  0  0  0  0
 12 15  1  0  0  0  0
  1 20  1  0  0  0  0
  2 21  1  0  0  0  0
  3 22  1  0  0  0  0
  4 23  1  0  0  0  0
 10 24  1  0  0  0  0
 10 25  1  0  0  0  0
 11 26  1  0  0  0  0
 11 27  1  0  0  0  0
 12 28  1  0  0  0  0
 12 29  1  0  0  0  0
 13 30  1  0  0  0  0
 15 31  1  0  0  0  0
M  END
> <FRED Chemgauss4 score>
-6.204758

$$$$
C40710569	P61812514
  -OEChem-05122015083D

 28 28  0     1  0  0  0  0  0999 V2000
   57.8253  156.4896   -6.3062 C   0  0  0  0  0  0  0  0  0  0  0  0
   55.9609  156.7336   -5.4435 C   0  0  0  0  0  0  0  0  0  0  0  0
   59.3661  156.5347   -8.3006 C   0  0  0  0  0  0  0  0  0  0  0  0
   58.7761  154.3383   -7.2129 C   0  0  0  0  0  0  0  0  0  0  0  0
   53.9380  155.2464   -4.9790 C   0  0  0  0  0  0  0  0  0  0  0  0
   52.8040  155.0112   -3.9865 C   0  0  0  0  0  0  0  0  0  0  0  0
   58.9731  155.8554   -6.9641 C   0  0  0  0  0  0  0  0  0  0  0  0
   54.5646  156.6453   -4.8642 C   0  0  2  0  0  0  0  0  0  0  0  0
   56.6888  155.7990   -6.0005 N   0  0  0  0  0  0  0  0  0  0  0  0
   57.8282  157.7823   -5.9678 N   0  0  0  0  0  0  0  0  0  0  0  0
   53.7032  157.6329   -5.4782 N   0  0  0  0  0  0  0  0  0  0  0  0
   56.5662  157.9487   -5.3837 O   0  0  0  0  0  0  0  0  0  0  0  0
   53.3099  155.1763   -2.6680 O   0  0  0  0  0  0  0  0  0  0  0  0
   58.5324  156.5239   -9.0113 H   0  0  0  0  0  0  0  0  0  0  0  0
   60.2188  156.0430   -8.7814 H   0  0  0  0  0  0  0  0  0  0  0  0
   59.6390  157.5808   -8.1222 H   0  0  0  0  0  0  0  0  0  0  0  0
   57.8904  154.1736   -7.8367 H   0  0  0  0  0  0  0  0  0  0  0  0
   58.6383  153.7792   -6.2810 H   0  0  0  0  0  0  0  0  0  0  0  0
   59.6372  153.9067   -7.7348 H   0  0  0  0  0  0  0  0  0  0  0  0
   53.5457  155.1047   -5.9957 H   0  0  0  0  0  0  0  0  0  0  0  0
   54.6948  154.4596   -4.8608 H   0  0  0  0  0  0  0  0  0  0  0  0
   51.9903  155.7281   -4.1317 H   0  0  0  0  0  0  0  0  0  0  0  0
   52.4074  153.9955   -4.0812 H   0  0  0  0  0  0  0  0  0  0  0  0
   59.8865  155.9248   -6.3282 H   0  0  0  0  0  0  0  0  0  0  0  0
   54.5930  156.9182   -3.8018 H   0  0  0  0  0  0  0  0  0  0  0  0
   54.0953  158.5180   -5.7412 H   0  0  0  0  0  0  0  0  0  0  0  0
   52.7100  157.4959   -5.4415 H   0  0  0  0  0  0  0  0  0  0  0  0
   52.5675  155.0209   -2.0622 H   0  0  0  0  0  0  0  0  0  0  0  0
  1  7  1  0  0  0  0
  1  9  1  0  0  0  0
  1 10  2  0  0  0  0
  2  8  1  0  0  0  0
  2  9  2  0  0  0  0
  2 12  1  0  0  0  0
  3  7  1  0  0  0  0
  4  7  1  0  0  0  0
  5  6  1  0  0  0  0
  5  8  1  0  0  0  0
  6 13  1  0  0  0  0
  8 11  1  0  0  0  0
 10 12  1  0  0  0  0
  3 14  1  0  0  0  0
  3 15  1  0  0  0  0
  3 16  1  0  0  0  0
  4 17  1  0  0  0  0
  4 18  1  0  0  0  0
  4 19  1  0  0  0  0
  5 20  1  0  0  0  0
  5 21  1  0  0  0  0
  6 22  1  0  0  0  0
  6 23  1  0  0  0  0
  7 24  1  0  0  0  0
  8 25  1  0  0  0  0
 11 26  1  0  0  0  0
 11 27  1  0  0  0  0
 13 28  1  0  0  0  0
M  END
> <FRED Chemgauss4 score>
-6.202126

$$$$
C70628573	P108955019
  -OEChem-05122015083D

 29 30  0     1  0  0  0  0  0999 V2000
   55.0243  160.2327   -3.3492 C   0  0  0  0  0  0  0  0  0  0  0  0
   54.5154  156.0690   -4.0494 C   0  0  0  0  0  0  0  0  0  0  0  0
   56.4499  160.4623   -2.9112 C   0  0  0  0  0  0  0  0  0  0  0  0
   57.2623  159.8948   -4.0724 C   0  0  0  0  0  0  0  0  0  0  0  0
   55.1252  154.5932   -5.8296 C   0  0  0  0  0  0  0  0  0  0  0  0
   56.0845  155.7694   -5.7935 C   0  0  0  0  0  0  0  0  0  0  0  0
   53.9312  155.0561   -5.0023 C   0  0  2  0  0  0  0  0  0  0  0  0
   56.3792  158.7904   -4.6402 C   0  0  1  0  0  0  0  0  0  0  0  0
   56.6330  157.4393   -3.9851 C   0  0  0  0  0  0  0  0  0  0  0  0
   55.0497  159.2689   -4.3518 N   0  0  0  0  0  0  0  0  0  0  0  0
   55.7716  156.4190   -4.5423 N   0  0  0  0  0  0  0  0  0  0  0  0
   52.9470  155.7708   -5.8334 N   0  0  0  0  0  0  0  0  0  0  0  0
   54.0414  160.7779   -2.8715 O   0  0  0  0  0  0  0  0  0  0  0  0
   53.9432  156.5118   -3.0640 O   0  0  0  0  0  0  0  0  0  0  0  0
   56.6460  161.5264   -2.7597 H   0  0  0  0  0  0  0  0  0  0  0  0
   56.6305  159.9103   -1.9839 H   0  0  0  0  0  0  0  0  0  0  0  0
   57.3975  160.6794   -4.8283 H   0  0  0  0  0  0  0  0  0  0  0  0
   58.2563  159.5540   -3.7676 H   0  0  0  0  0  0  0  0  0  0  0  0
   54.8754  154.2819   -6.8489 H   0  0  0  0  0  0  0  0  0  0  0  0
   55.5896  153.7317   -5.3322 H   0  0  0  0  0  0  0  0  0  0  0  0
   57.1303  155.4499   -5.8114 H   0  0  0  0  0  0  0  0  0  0  0  0
   55.8959  156.4769   -6.6074 H   0  0  0  0  0  0  0  0  0  0  0  0
   53.4645  154.2319   -4.4685 H   0  0  0  0  0  0  0  0  0  0  0  0
   56.4981  158.6950   -5.7215 H   0  0  0  0  0  0  0  0  0  0  0  0
   56.4365  157.4915   -2.9100 H   0  0  0  0  0  0  0  0  0  0  0  0
   57.6685  157.1217   -4.1391 H   0  0  0  0  0  0  0  0  0  0  0  0
   54.2143  158.9188   -4.8101 H   0  0  0  0  0  0  0  0  0  0  0  0
   52.3804  156.4691   -5.3993 H   0  0  0  0  0  0  0  0  0  0  0  0
   52.7352  155.4020   -6.7369 H   0  0  0  0  0  0  0  0  0  0  0  0
  1  3  1  0  0  0  0
  1 10  1  0  0  0  0
  1 13  2  0  0  0  0
  2  7  1  0  0  0  0
  2 11  1  0  0  0  0
  2 14  2  0  0  0  0
  3  4  1  0  0  0  0
  4  8  1  0  0  0  0
  5  6  1  0  0  0  0
  5  7  1  0  0  0  0
  6 11  1  0  0  0  0
  7 12  1  0  0  0  0
  8  9  1  0  0  0  0
  8 10  1  0  0  0  0
  9 11  1  0  0  0  0
  3 15  1  0  0  0  0
  3 16  1  0  0  0  0
  4 17  1  0  0  0  0
  4 18  1  0  0  0  0
  5 19  1  0  0  0  0
  5 20  1  0  0  0  0
  6 21  1  0  0  0  0
  6 22  1  0  0  0  0
  7 23  1  0  0  0  0
  8 24  1  0  0  0  0
  9 25  1  0  0  0  0
  9 26  1  0  0  0  0
 10 27  1  0  0  0  0
 12 28  1  0  0  0  0
 12 29  1  0  0  0  0
M  END
> <FRED Chemgauss4 score>
-6.199377

$$$$
C95046220	P149005380
  -OEChem-05122015083D

 43 44  0     0  0  0  0  0  0999 V2000
   58.1488  161.7439   -3.4391 C   0  0  0  0  0  0  0  0  0  0  0  0
   59.6421  162.2096   -4.8711 C   0  0  0  0  0  0  0  0  0  0  0  0
   57.2939  160.9957   -2.4817 C   0  0  0  0  0  0  0  0  0  0  0  0
   54.1341  157.8567   -5.3106 C   0  0  0  0  0  0  0  0  0  0  0  0
   53.5353  156.5678   -3.2271 C   0  0  0  0  0  0  0  0  0  0  0  0
   53.3410  156.8636   -6.1437 C   0  0  0  0  0  0  0  0  0  0  0  0
   52.7454  155.5831   -4.0732 C   0  0  0  0  0  0  0  0  0  0  0  0
   54.6638  157.2198   -4.0266 C   0  0  0  0  0  0  0  0  0  0  0  0
   61.9923  162.9364   -5.4202 C   0  0  0  0  0  0  0  0  0  0  0  0
   60.3687  162.4129   -7.2763 C   0  0  0  0  0  0  0  0  0  0  0  0
   56.8168  158.7787   -1.4751 C   0  0  0  0  0  0  0  0  0  0  0  0
   56.1820  157.6660   -2.2892 C   0  0  0  0  0  0  0  0  0  0  0  0
   60.7550  162.0836   -5.8093 C   0  0  0  0  0  0  0  0  0  0  0  0
   58.9884  163.3617   -4.6240 N   0  5  0  0  0  0  0  0  0  0  0  0
   59.1421  161.1959   -4.1518 N   0  0  0  0  0  0  0  0  0  0  0  0
   58.0224  163.0605   -3.6966 N   0  0  0  0  0  0  0  0  0  0  0  0
   57.5943  159.6668   -2.3693 N   0  0  0  0  0  0  0  0  0  0  0  0
   52.2547  156.2753   -5.3031 N   0  3  0  0  0  0  0  0  0  0  0  0
   56.3945  161.5879   -1.8910 O   0  0  0  0  0  0  0  0  0  0  0  0
   55.2899  158.2279   -3.2411 O   0  0  0  0  0  0  0  0  0  0  0  0
   54.9694  158.2574   -5.8973 H   0  0  0  0  0  0  0  0  0  0  0  0
   53.5066  158.7226   -5.0610 H   0  0  0  0  0  0  0  0  0  0  0  0
   52.8676  157.3449   -2.8321 H   0  0  0  0  0  0  0  0  0  0  0  0
   53.9487  156.0595   -2.3479 H   0  0  0  0  0  0  0  0  0  0  0  0
   52.8579  157.3490   -6.9965 H   0  0  0  0  0  0  0  0  0  0  0  0
   53.9619  156.0355   -6.5008 H   0  0  0  0  0  0  0  0  0  0  0  0
   53.3564  154.7346   -4.3980 H   0  0  0  0  0  0  0  0  0  0  0  0
   51.8639  155.2125   -3.5417 H   0  0  0  0  0  0  0  0  0  0  0  0
   55.4240  156.4706   -4.2776 H   0  0  0  0  0  0  0  0  0  0  0  0
   61.7344  163.9989   -5.3521 H   0  0  0  0  0  0  0  0  0  0  0  0
   62.8116  162.8391   -6.1408 H   0  0  0  0  0  0  0  0  0  0  0  0
   62.3682  162.6207   -4.4406 H   0  0  0  0  0  0  0  0  0  0  0  0
   59.9793  163.4353   -7.3376 H   0  0  0  0  0  0  0  0  0  0  0  0
   59.6007  161.7376   -7.6688 H   0  0  0  0  0  0  0  0  0  0  0  0
   61.2389  162.3467   -7.9385 H   0  0  0  0  0  0  0  0  0  0  0  0
   56.0573  159.3823   -0.9681 H   0  0  0  0  0  0  0  0  0  0  0  0
   57.5005  158.3625   -0.7291 H   0  0  0  0  0  0  0  0  0  0  0  0
   55.6053  157.0051   -1.6347 H   0  0  0  0  0  0  0  0  0  0  0  0
   56.9358  157.0746   -2.8191 H   0  0  0  0  0  0  0  0  0  0  0  0
   61.1366  161.0341   -5.8473 H   0  0  0  0  0  0  0  0  0  0  0  0
   58.2953  159.2120   -2.9170 H   0  0  0  0  0  0  0  0  0  0  0  0
   51.5896  157.0150   -5.0370 H   0  0  0  0  0  0  0  0  0  0  0  0
   51.7138  155.6087   -5.8709 H   0  0  0  0  0  0  0  0  0  0  0  0
  1  3  1  0  0  0  0
  1 15  1  0  0  0  0
  1 16  2  0  0  0  0
  2 13  1  0  0  0  0
  2 14  1  0  0  0  0
  2 15  2  0  0  0  0
  3 17  1  0  0  0  0
  3 19  2  0  0  0  0
  4  6  1  0  0  0  0
  4  8  1  0  0  0  0
  5  7  1  0  0  0  0
  5  8  1  0  0  0  0
  6 18  1  0  0  0  0
  7 18  1  0  0  0  0
  8 20  1  0  0  0  0
  9 13  1  0  0  0  0
 10 13  1  0  0  0  0
 11 12  1  0  0  0  0
 11 17  1  0  0  0  0
 12 20  1  0  0  0  0
 14 16  1  0  0  0  0
  4 21  1  0  0  0  0
  4 22  1  0  0  0  0
  5 23  1  0  0  0  0
  5 24  1  0  0  0  0
  6 25  1  0  0  0  0
  6 26  1  0  0  0  0
  7 27  1  0  0  0  0
  7 28  1  0  0  0  0
  8 29  1  0  0  0  0
  9 30  1  0  0  0  0
  9 31  1  0  0  0  0
  9 32  1  0  0  0  0
 10 33  1  0  0  0  0
 10 34  1  0  0  0  0
 10 35  1  0  0  0  0
 11 36  1  0  0  0  0
 11 37  1  0  0  0  0
 12 38  1  0  0  0  0
 12 39  1  0  0  0  0
 13 40  1  0  0  0  0
 17 41  1  0  0  0  0
 18 42  1  0  0  0  0
 18 43  1  0  0  0  0
M  CHG  2  14  -1  18   1
M  END
> <FRED Chemgauss4 score>
-6.197802

$$$$
C85252515	P133382402
  -OEChem-05122015083D

 27 27  0     1  0  0  0  0  0999 V2000
   58.7448  153.7598   -6.7267 C   0  0  0  0  0  0  0  0  0  0  0  0
   59.8560  154.3330   -7.3087 C   0  0  0  0  0  0  0  0  0  0  0  0
   58.0833  155.8508   -6.7120 C   0  0  0  0  0  0  0  0  0  0  0  0
   54.1599  154.3339   -6.5681 C   0  0  0  0  0  0  0  0  0  0  0  0
   57.2350  157.0703   -6.4939 C   0  0  0  0  0  0  0  0  0  0  0  0
   55.3380  156.1639   -5.3361 C   0  0  0  0  0  0  0  0  0  0  0  0
   53.3806  154.9048   -4.2416 C   0  0  0  0  0  0  0  0  0  0  0  0
   53.9855  155.4584   -5.5404 C   0  0  2  0  0  0  0  0  0  0  0  0
   57.7274  154.6287   -6.3835 N   0  0  0  0  0  0  0  0  0  0  0  0
   55.8087  156.7636   -6.5645 N   0  0  0  0  0  0  0  0  0  0  0  0
   53.1851  155.9395   -3.2903 O   0  0  0  0  0  0  0  0  0  0  0  0
   53.0569  156.3887   -6.1050 O   0  0  0  0  0  0  0  0  0  0  0  0
   59.6281  156.0279   -7.4381 S   0  0  0  0  0  0  0  0  0  0  0  0
   58.6244  152.7032   -6.5289 H   0  0  0  0  0  0  0  0  0  0  0  0
   60.7600  153.8522   -7.6547 H   0  0  0  0  0  0  0  0  0  0  0  0
   53.2119  153.8099   -6.7369 H   0  0  0  0  0  0  0  0  0  0  0  0
   54.5238  154.7103   -7.5296 H   0  0  0  0  0  0  0  0  0  0  0  0
   54.8664  153.5792   -6.2032 H   0  0  0  0  0  0  0  0  0  0  0  0
   57.4371  157.5105   -5.5114 H   0  0  0  0  0  0  0  0  0  0  0  0
   57.4499  157.8379   -7.2447 H   0  0  0  0  0  0  0  0  0  0  0  0
   56.0957  155.4623   -4.9707 H   0  0  0  0  0  0  0  0  0  0  0  0
   55.2371  156.9618   -4.5916 H   0  0  0  0  0  0  0  0  0  0  0  0
   54.0252  154.1362   -3.8007 H   0  0  0  0  0  0  0  0  0  0  0  0
   52.4159  154.4245   -4.4432 H   0  0  0  0  0  0  0  0  0  0  0  0
   55.2954  157.6300   -6.7459 H   0  0  0  0  0  0  0  0  0  0  0  0
   52.8033  155.5263   -2.4982 H   0  0  0  0  0  0  0  0  0  0  0  0
   53.4555  156.7026   -6.9297 H   0  0  0  0  0  0  0  0  0  0  0  0
  1  2  2  0  0  0  0
  1  9  1  0  0  0  0
  2 13  1  0  0  0  0
  3  5  1  0  0  0  0
  3  9  2  0  0  0  0
  3 13  1  0  0  0  0
  4  8  1  0  0  0  0
  5 10  1  0  0  0  0
  6  8  1  0  0  0  0
  6 10  1  0  0  0  0
  7  8  1  0  0  0  0
  7 11  1  0  0  0  0
  8 12  1  0  0  0  0
  1 14  1  0  0  0  0
  2 15  1  0  0  0  0
  4 16  1  0  0  0  0
  4 17  1  0  0  0  0
  4 18  1  0  0  0  0
  5 19  1  0  0  0  0
  5 20  1  0  0  0  0
  6 21  1  0  0  0  0
  6 22  1  0  0  0  0
  7 23  1  0  0  0  0
  7 24  1  0  0  0  0
 10 25  1  0  0  0  0
 11 26  1  0  0  0  0
 12 27  1  0  0  0  0
M  END
> <FRED Chemgauss4 score>
-6.195437

$$$$
C34519122	P151017257
  -OEChem-05122015083D

 24 24  0     1  0  0  0  0  0999 V2000
   54.5271  155.5672   -6.2706 C   0  0  1  0  0  0  0  0  0  0  0  0
   53.7224  156.6759   -5.6245 C   0  0  2  0  0  0  0  0  0  0  0  0
   55.7582  155.5040   -5.3775 C   0  0  1  0  0  0  0  0  0  0  0  0
   54.0219  156.5009   -4.1323 C   0  0  1  0  0  0  0  0  0  0  0  0
   56.8488  156.4862   -5.7847 C   0  0  0  0  0  0  0  0  0  0  0  0
   53.0210  155.6389   -3.3670 C   0  0  0  0  0  0  0  0  0  0  0  0
   55.3090  155.8544   -4.0512 O   0  0  0  0  0  0  0  0  0  0  0  0
   53.8423  154.3210   -6.1798 O   0  0  0  0  0  0  0  0  0  0  0  0
   52.3499  156.6087   -5.9539 O   0  0  0  0  0  0  0  0  0  0  0  0
   54.0519  157.7674   -3.4757 O   0  0  0  0  0  0  0  0  0  0  0  0
   56.3243  157.8025   -5.7258 O   0  0  0  0  0  0  0  0  0  0  0  0
   53.4323  155.5600   -2.0135 O   0  0  0  0  0  0  0  0  0  0  0  0
   54.7624  155.7776   -7.2827 H   0  0  0  0  0  0  0  0  0  0  0  0
   54.0944  157.6883   -6.0107 H   0  0  0  0  0  0  0  0  0  0  0  0
   56.1763  154.5020   -5.3364 H   0  0  0  0  0  0  0  0  0  0  0  0
   57.1817  156.2812   -6.8047 H   0  0  0  0  0  0  0  0  0  0  0  0
   57.6998  156.4115   -5.1039 H   0  0  0  0  0  0  0  0  0  0  0  0
   52.9901  154.6343   -3.7914 H   0  0  0  0  0  0  0  0  0  0  0  0
   52.0273  156.0866   -3.4142 H   0  0  0  0  0  0  0  0  0  0  0  0
   54.4035  153.6510   -6.6087 H   0  0  0  0  0  0  0  0  0  0  0  0
   51.9188  157.3499   -5.5002 H   0  0  0  0  0  0  0  0  0  0  0  0
   54.7527  158.2793   -3.9054 H   0  0  0  0  0  0  0  0  0  0  0  0
   57.0399  158.4047   -5.9898 H   0  0  0  0  0  0  0  0  0  0  0  0
   52.7805  155.0076   -1.5497 H   0  0  0  0  0  0  0  0  0  0  0  0
  1  2  1  0  0  0  0
  1  3  1  0  0  0  0
  1  8  1  0  0  0  0
  2  4  1  0  0  0  0
  2  9  1  0  0  0  0
  3  5  1  0  0  0  0
  3  7  1  0  0  0  0
  4  6  1  0  0  0  0
  4  7  1  0  0  0  0
  4 10  1  0  0  0  0
  5 11  1  0  0  0  0
  6 12  1  0  0  0  0
  1 13  1  0  0  0  0
  2 14  1  0  0  0  0
  3 15  1  0  0  0  0
  5 16  1  0  0  0  0
  5 17  1  0  0  0  0
  6 18  1  0  0  0  0
  6 19  1  0  0  0  0
  8 20  1  0  0  0  0
  9 21  1  0  0  0  0
 10 22  1  0  0  0  0
 11 23  1  0  0  0  0
 12 24  1  0  0  0  0
M  END
> <FRED Chemgauss4 score>
-6.194709

$$$$
C97640642	P154823007
  -OEChem-05122015083D

 40 41  0     1  0  0  0  0  0999 V2000
   57.6525  154.6579   -6.4658 C   0  0  0  0  0  0  0  0  0  0  0  0
   54.1405  156.0691   -3.4281 C   0  0  0  0  0  0  0  0  0  0  0  0
   53.8843  157.9346   -2.4358 C   0  0  0  0  0  0  0  0  0  0  0  0
   56.2606  154.7931   -6.3038 C   0  0  0  0  0  0  0  0  0  0  0  0
   54.4250  157.0288   -4.3707 C   0  0  0  0  0  0  0  0  0  0  0  0
   56.0696  156.1349   -6.0814 C   0  0  0  0  0  0  0  0  0  0  0  0
   54.4342  159.5409   -4.2723 C   0  0  0  0  0  0  0  0  0  0  0  0
   59.8973  160.2199   -5.5794 C   0  0  0  0  0  0  0  0  0  0  0  0
   59.3780  160.0268   -3.2416 C   0  0  0  0  0  0  0  0  0  0  0  0
   57.6385  158.1111   -5.9426 C   0  0  0  0  0  0  0  0  0  0  0  0
   58.6014  158.3587   -4.7865 C   0  0  0  0  0  0  0  0  0  0  0  0
   54.8441  156.9200   -5.8380 C   0  0  1  0  0  0  0  0  0  0  0  0
   53.8043  156.6394   -2.2259 N   0  0  0  0  0  0  0  0  0  0  0  0
   58.2998  155.8211   -6.3558 N   0  0  0  0  0  0  0  0  0  0  0  0
   54.2562  158.2187   -3.7205 N   0  0  0  0  0  0  0  0  0  0  0  0
   57.3103  156.7000   -6.1224 N   0  0  0  0  0  0  0  0  0  0  0  0
   52.6232  157.3126   -6.4560 N   0  0  0  0  0  0  0  0  0  0  0  0
   53.7011  156.4036   -6.6254 N   0  0  0  0  0  0  0  0  0  0  0  0
   58.9032  159.7777   -4.6022 N   0  0  0  0  0  0  0  0  0  0  0  0
   55.0115  153.4134   -6.3853 Br  0  0  0  0  0  0  0  0  0  0  0  0
   58.2272  153.7630   -6.6594 H   0  0  0  0  0  0  0  0  0  0  0  0
   54.1598  154.9958   -3.5517 H   0  0  0  0  0  0  0  0  0  0  0  0
   53.6866  158.7061   -1.7041 H   0  0  0  0  0  0  0  0  0  0  0  0
   55.4754  159.8347   -4.1152 H   0  0  0  0  0  0  0  0  0  0  0  0
   54.1985  159.5246   -5.3400 H   0  0  0  0  0  0  0  0  0  0  0  0
   53.7590  160.2372   -3.7671 H   0  0  0  0  0  0  0  0  0  0  0  0
   59.5367  160.0311   -6.5939 H   0  0  0  0  0  0  0  0  0  0  0  0
   60.8368  159.6799   -5.4337 H   0  0  0  0  0  0  0  0  0  0  0  0
   60.0875  161.2907   -5.4671 H   0  0  0  0  0  0  0  0  0  0  0  0
   58.6309  159.6943   -2.5162 H   0  0  0  0  0  0  0  0  0  0  0  0
   59.5604  161.0948   -3.0945 H   0  0  0  0  0  0  0  0  0  0  0  0
   60.3097  159.4841   -3.0611 H   0  0  0  0  0  0  0  0  0  0  0  0
   56.6938  158.6395   -5.7666 H   0  0  0  0  0  0  0  0  0  0  0  0
   58.0482  158.4867   -6.8879 H   0  0  0  0  0  0  0  0  0  0  0  0
   58.1602  158.0044   -3.8498 H   0  0  0  0  0  0  0  0  0  0  0  0
   59.5522  157.8375   -4.9372 H   0  0  0  0  0  0  0  0  0  0  0  0
   54.9704  157.9532   -6.2247 H   0  0  0  0  0  0  0  0  0  0  0  0
   52.9404  158.1328   -5.9401 H   0  0  0  0  0  0  0  0  0  0  0  0
   52.3524  157.6514   -7.3784 H   0  0  0  0  0  0  0  0  0  0  0  0
   53.4521  155.4932   -6.2617 H   0  0  0  0  0  0  0  0  0  0  0  0
  1  4  1  0  0  0  0
  1 14  2  0  0  0  0
  2  5  2  0  0  0  0
  2 13  1  0  0  0  0
  3 13  2  0  0  0  0
  3 15  1  0  0  0  0
  4  6  2  0  0  0  0
  4 20  1  0  0  0  0
  5 12  1  0  0  0  0
  5 15  1  0  0  0  0
  6 12  1  0  0  0  0
  6 16  1  0  0  0  0
  7 15  1  0  0  0  0
  8 19  1  0  0  0  0
  9 19  1  0  0  0  0
 10 11  1  0  0  0  0
 10 16  1  0  0  0  0
 11 19  1  0  0  0  0
 12 18  1  0  0  0  0
 14 16  1  0  0  0  0
 17 18  1  0  0  0  0
  1 21  1  0  0  0  0
  2 22  1  0  0  0  0
  3 23  1  0  0  0  0
  7 24  1  0  0  0  0
  7 25  1  0  0  0  0
  7 26  1  0  0  0  0
  8 27  1  0  0  0  0
  8 28  1  0  0  0  0
  8 29  1  0  0  0  0
  9 30  1  0  0  0  0
  9 31  1  0  0  0  0
  9 32  1  0  0  0  0
 10 33  1  0  0  0  0
 10 34  1  0  0  0  0
 11 35  1  0  0  0  0
 11 36  1  0  0  0  0
 12 37  1  0  0  0  0
 17 38  1  0  0  0  0
 17 39  1  0  0  0  0
 18 40  1  0  0  0  0
M  END
> <FRED Chemgauss4 score>
-6.190949

$$$$
C97736321	P155065748
  -OEChem-05122015083D

 43 45  0     1  0  0  0  0  0999 V2000
   57.6538  163.2146   -2.6127 C   0  0  0  0  0  0  0  0  0  0  0  0
   56.4309  163.1482   -3.2739 C   0  0  0  0  0  0  0  0  0  0  0  0
   58.1051  162.1217   -1.8760 C   0  0  0  0  0  0  0  0  0  0  0  0
   55.6624  161.9846   -3.2102 C   0  0  0  0  0  0  0  0  0  0  0  0
   53.3994  155.8013   -3.2784 C   0  0  0  0  0  0  0  0  0  0  0  0
   54.3300  155.5249   -4.2521 C   0  0  0  0  0  0  0  0  0  0  0  0
   57.3336  160.9540   -1.7966 C   0  0  0  0  0  0  0  0  0  0  0  0
   56.1127  160.8658   -2.4932 C   0  0  0  0  0  0  0  0  0  0  0  0
   54.3346  157.6625   -3.7163 C   0  0  0  0  0  0  0  0  0  0  0  0
   57.8384  159.7771   -1.0050 C   0  0  0  0  0  0  0  0  0  0  0  0
   56.6934  158.8430   -0.6471 C   0  0  0  0  0  0  0  0  0  0  0  0
   55.2732  159.6031   -2.3952 C   0  0  1  0  0  0  0  0  0  0  0  0
   58.4287  156.7438   -5.9921 C   0  0  0  0  0  0  0  0  0  0  0  0
   57.3335  156.4917   -4.9689 C   0  0  0  0  0  0  0  0  0  0  0  0
   55.9720  156.9492   -5.4874 C   0  0  0  0  0  0  0  0  0  0  0  0
   54.7422  159.1197   -3.7437 C   0  0  2  0  0  0  0  0  0  0  0  0
   53.4070  157.1338   -2.9495 N   0  0  0  0  0  0  0  0  0  0  0  0
   54.9208  156.7269   -4.5228 N   0  0  0  0  0  0  0  0  0  0  0  0
   53.2635  159.5427   -5.5046 N   0  0  0  0  0  0  0  0  0  0  0  0
   53.6562  159.9601   -4.1929 N   0  0  0  0  0  0  0  0  0  0  0  0
   56.0019  158.4925   -1.8426 O   0  0  0  0  0  0  0  0  0  0  0  0
   58.2528  164.1188   -2.6660 H   0  0  0  0  0  0  0  0  0  0  0  0
   56.0721  164.0040   -3.8386 H   0  0  0  0  0  0  0  0  0  0  0  0
   59.0594  162.1853   -1.3595 H   0  0  0  0  0  0  0  0  0  0  0  0
   54.7052  161.9670   -3.7241 H   0  0  0  0  0  0  0  0  0  0  0  0
   52.7242  155.1087   -2.7975 H   0  0  0  0  0  0  0  0  0  0  0  0
   54.6114  154.6109   -4.7563 H   0  0  0  0  0  0  0  0  0  0  0  0
   58.5701  159.2457   -1.6259 H   0  0  0  0  0  0  0  0  0  0  0  0
   58.3369  160.1108   -0.0883 H   0  0  0  0  0  0  0  0  0  0  0  0
   57.0857  157.9246   -0.1988 H   0  0  0  0  0  0  0  0  0  0  0  0
   55.9973  159.2948    0.0703 H   0  0  0  0  0  0  0  0  0  0  0  0
   54.4241  159.8044   -1.7295 H   0  0  0  0  0  0  0  0  0  0  0  0
   58.4829  157.8050   -6.2550 H   0  0  0  0  0  0  0  0  0  0  0  0
   58.2307  156.1766   -6.9070 H   0  0  0  0  0  0  0  0  0  0  0  0
   59.4052  156.4349   -5.6054 H   0  0  0  0  0  0  0  0  0  0  0  0
   57.3046  155.4226   -4.7267 H   0  0  0  0  0  0  0  0  0  0  0  0
   57.5792  157.0190   -4.0391 H   0  0  0  0  0  0  0  0  0  0  0  0
   55.7005  156.4139   -6.4050 H   0  0  0  0  0  0  0  0  0  0  0  0
   55.9819  158.0188   -5.7285 H   0  0  0  0  0  0  0  0  0  0  0  0
   55.5401  159.2562   -4.4838 H   0  0  0  0  0  0  0  0  0  0  0  0
   53.4186  160.3065   -6.1620 H   0  0  0  0  0  0  0  0  0  0  0  0
   53.8710  158.7839   -5.8111 H   0  0  0  0  0  0  0  0  0  0  0  0
   52.8538  159.8644   -3.5650 H   0  0  0  0  0  0  0  0  0  0  0  0
  1  2  1  0  0  0  0
  1  3  2  0  0  0  0
  2  4  2  0  0  0  0
  3  7  1  0  0  0  0
  4  8  1  0  0  0  0
  5  6  2  0  0  0  0
  5 17  1  0  0  0  0
  6 18  1  0  0  0  0
  7  8  2  0  0  0  0
  7 10  1  0  0  0  0
  8 12  1  0  0  0  0
  9 16  1  0  0  0  0
  9 17  2  0  0  0  0
  9 18  1  0  0  0  0
 10 11  1  0  0  0  0
 11 21  1  0  0  0  0
 12 16  1  0  0  0  0
 12 21  1  0  0  0  0
 13 14  1  0  0  0  0
 14 15  1  0  0  0  0
 15 18  1  0  0  0  0
 16 20  1  0  0  0  0
 19 20  1  0  0  0  0
  1 22  1  0  0  0  0
  2 23  1  0  0  0  0
  3 24  1  0  0  0  0
  4 25  1  0  0  0  0
  5 26  1  0  0  0  0
  6 27  1  0  0  0  0
 10 28  1  0  0  0  0
 10 29  1  0  0  0  0
 11 30  1  0  0  0  0
 11 31  1  0  0  0  0
 12 32  1  0  0  0  0
 13 33  1  0  0  0  0
 13 34  1  0  0  0  0
 13 35  1  0  0  0  0
 14 36  1  0  0  0  0
 14 37  1  0  0  0  0
 15 38  1  0  0  0  0
 15 39  1  0  0  0  0
 16 40  1  0  0  0  0
 19 41  1  0  0  0  0
 19 42  1  0  0  0  0
 20 43  1  0  0  0  0
M  END
> <FRED Chemgauss4 score>
-6.190447

$$$$
C85227463	P133359195
  -OEChem-05122015083D

 23 23  0     1  0  0  0  0  0999 V2000
   56.3253  154.8920   -6.2420 C   0  0  0  0  0  0  0  0  0  0  0  0
   54.5973  155.8371   -5.5505 C   0  0  0  0  0  0  0  0  0  0  0  0
   57.9810  153.5384   -7.5509 C   0  0  0  0  0  0  0  0  0  0  0  0
   57.7467  154.6302   -6.4965 C   0  0  0  0  0  0  0  0  0  0  0  0
   53.1979  156.3013   -3.5084 C   0  0  0  0  0  0  0  0  0  0  0  0
   53.5556  156.7399   -4.9307 C   0  0  2  0  0  0  0  0  0  0  0  0
   55.9015  155.9875   -5.5457 N   0  0  0  0  0  0  0  0  0  0  0  0
   55.3654  154.0732   -6.6774 N   0  0  0  0  0  0  0  0  0  0  0  0
   54.2703  154.7004   -6.2219 N   0  0  0  0  0  0  0  0  0  0  0  0
   54.2084  156.7658   -2.5848 N   0  0  0  0  0  0  0  0  0  0  0  0
   52.3887  156.7130   -5.7532 O   0  0  0  0  0  0  0  0  0  0  0  0
   57.4743  152.6106   -7.2642 H   0  0  0  0  0  0  0  0  0  0  0  0
   59.0463  153.3191   -7.6728 H   0  0  0  0  0  0  0  0  0  0  0  0
   57.5854  153.8506   -8.5233 H   0  0  0  0  0  0  0  0  0  0  0  0
   58.2772  155.5471   -6.8295 H   0  0  0  0  0  0  0  0  0  0  0  0
   58.2787  154.3302   -5.5690 H   0  0  0  0  0  0  0  0  0  0  0  0
   53.1390  155.2096   -3.4399 H   0  0  0  0  0  0  0  0  0  0  0  0
   52.2308  156.7130   -3.1993 H   0  0  0  0  0  0  0  0  0  0  0  0
   53.9176  157.7755   -4.9293 H   0  0  0  0  0  0  0  0  0  0  0  0
   53.3579  154.2996   -6.4055 H   0  0  0  0  0  0  0  0  0  0  0  0
   55.1700  156.7524   -2.8730 H   0  0  0  0  0  0  0  0  0  0  0  0
   53.9594  156.8962   -1.6210 H   0  0  0  0  0  0  0  0  0  0  0  0
   52.0910  155.7912   -5.7756 H   0  0  0  0  0  0  0  0  0  0  0  0
  1  4  1  0  0  0  0
  1  7  1  0  0  0  0
  1  8  2  0  0  0  0
  2  6  1  0  0  0  0
  2  7  2  0  0  0  0
  2  9  1  0  0  0  0
  3  4  1  0  0  0  0
  5  6  1  0  0  0  0
  5 10  1  0  0  0  0
  6 11  1  0  0  0  0
  8  9  1  0  0  0  0
  3 12  1  0  0  0  0
  3 13  1  0  0  0  0
  3 14  1  0  0  0  0
  4 15  1  0  0  0  0
  4 16  1  0  0  0  0
  5 17  1  0  0  0  0
  5 18  1  0  0  0  0
  6 19  1  0  0  0  0
  9 20  1  0  0  0  0
 10 21  1  0  0  0  0
 10 22  1  0  0  0  0
 11 23  1  0  0  0  0
M  END
> <FRED Chemgauss4 score>
-6.188916

$$$$
C40348239	P61248580
  -OEChem-05122015083D

 34 35  0     0  0  0  0  0  0999 V2000
   57.1287  154.8233   -6.0331 C   0  0  0  0  0  0  0  0  0  0  0  0
   56.4444  155.5365   -5.0489 C   0  0  0  0  0  0  0  0  0  0  0  0
   55.1638  153.4716   -6.4198 C   0  0  0  0  0  0  0  0  0  0  0  0
   56.2272  161.0035   -2.9825 C   0  0  0  0  0  0  0  0  0  0  0  0
   54.4795  154.1848   -5.4355 C   0  0  0  0  0  0  0  0  0  0  0  0
   56.4884  153.7909   -6.7186 C   0  0  0  0  0  0  0  0  0  0  0  0
   55.1198  155.2172   -4.7501 C   0  0  0  0  0  0  0  0  0  0  0  0
   54.9213  161.3794   -3.2184 C   0  0  0  0  0  0  0  0  0  0  0  0
   54.9241  159.4853   -4.3240 C   0  0  0  0  0  0  0  0  0  0  0  0
   53.0622  153.8178   -5.1391 C   0  0  0  0  0  0  0  0  0  0  0  0
   54.2761  162.6117   -2.7238 C   0  0  0  0  0  0  0  0  0  0  0  0
   54.4589  158.3295   -5.1618 C   0  0  0  0  0  0  0  0  0  0  0  0
   54.1728  160.5103   -3.9878 N   0  0  0  0  0  0  0  0  0  0  0  0
   57.1807  153.0704   -7.7139 N   0  0  0  0  0  0  0  0  0  0  0  0
   53.5970  157.4119   -4.4030 N   0  0  0  0  0  0  0  0  0  0  0  0
   53.2228  155.3105   -2.9605 O   0  0  0  0  0  0  0  0  0  0  0  0
   55.3033  156.6810   -2.6177 O   0  0  0  0  0  0  0  0  0  0  0  0
   56.5408  159.5016   -3.7487 S   0  0  0  0  0  0  0  0  0  0  0  0
   54.2919  156.1325   -3.5094 S   0  0  0  0  0  0  0  0  0  0  0  0
   58.1602  155.0815   -6.2585 H   0  0  0  0  0  0  0  0  0  0  0  0
   56.9534  156.3393   -4.5220 H   0  0  0  0  0  0  0  0  0  0  0  0
   54.6644  152.6663   -6.9539 H   0  0  0  0  0  0  0  0  0  0  0  0
   56.9892  161.5193   -2.4153 H   0  0  0  0  0  0  0  0  0  0  0  0
   53.0242  153.0540   -4.3540 H   0  0  0  0  0  0  0  0  0  0  0  0
   52.4883  154.6911   -4.8057 H   0  0  0  0  0  0  0  0  0  0  0  0
   52.5592  153.4270   -6.0322 H   0  0  0  0  0  0  0  0  0  0  0  0
   54.3991  163.4396   -3.4410 H   0  0  0  0  0  0  0  0  0  0  0  0
   53.1948  162.4729   -2.5542 H   0  0  0  0  0  0  0  0  0  0  0  0
   54.6966  162.9395   -1.7577 H   0  0  0  0  0  0  0  0  0  0  0  0
   53.8921  158.6849   -6.0292 H   0  0  0  0  0  0  0  0  0  0  0  0
   55.3085  157.7530   -5.5424 H   0  0  0  0  0  0  0  0  0  0  0  0
   58.1139  153.3400   -7.9514 H   0  0  0  0  0  0  0  0  0  0  0  0
   56.6965  152.3643   -8.2307 H   0  0  0  0  0  0  0  0  0  0  0  0
   52.6910  157.7906   -4.1012 H   0  0  0  0  0  0  0  0  0  0  0  0
  1  2  2  0  0  0  0
  1  6  1  0  0  0  0
  2  7  1  0  0  0  0
  3  5  1  0  0  0  0
  3  6  2  0  0  0  0
  4  8  2  0  0  0  0
  4 18  1  0  0  0  0
  5  7  2  0  0  0  0
  5 10  1  0  0  0  0
  6 14  1  0  0  0  0
  7 19  1  0  0  0  0
  8 11  1  0  0  0  0
  8 13  1  0  0  0  0
  9 12  1  0  0  0  0
  9 13  2  0  0  0  0
  9 18  1  0  0  0  0
 12 15  1  0  0  0  0
 15 19  1  0  0  0  0
 16 19  2  0  0  0  0
 17 19  2  0  0  0  0
  1 20  1  0  0  0  0
  2 21  1  0  0  0  0
  3 22  1  0  0  0  0
  4 23  1  0  0  0  0
 10 24  1  0  0  0  0
 10 25  1  0  0  0  0
 10 26  1  0  0  0  0
 11 27  1  0  0  0  0
 11 28  1  0  0  0  0
 11 29  1  0  0  0  0
 12 30  1  0  0  0  0
 12 31  1  0  0  0  0
 14 32  1  0  0  0  0
 14 33  1  0  0  0  0
 15 34  1  0  0  0  0
M  END
> <FRED Chemgauss4 score>
-6.185143

$$$$
C82410507	P128782165
  -OEChem-05122015083D

 19 19  0     1  0  0  0  0  0999 V2000
   55.4889  154.0714   -6.8206 C   0  0  0  0  0  0  0  0  0  0  0  0
   55.3984  153.4415   -5.5989 C   0  0  0  0  0  0  0  0  0  0  0  0
   54.2329  155.8062   -6.0192 C   0  0  0  0  0  0  0  0  0  0  0  0
   54.1417  155.1760   -4.7977 C   0  0  0  0  0  0  0  0  0  0  0  0
   53.9495  157.1736   -3.2541 C   0  0  0  0  0  0  0  0  0  0  0  0
   53.3744  155.8140   -3.6597 C   0  0  2  0  0  0  0  0  0  0  0  0
   54.9078  155.2651   -7.0527 N   0  0  0  0  0  0  0  0  0  0  0  0
   54.7231  153.9825   -4.5656 N   0  0  0  0  0  0  0  0  0  0  0  0
   53.3202  154.9318   -2.5136 N   0  0  0  0  0  0  0  0  0  0  0  0
   53.4642  158.1729   -4.1449 O   0  0  0  0  0  0  0  0  0  0  0  0
   56.0316  153.6359   -7.6505 H   0  0  0  0  0  0  0  0  0  0  0  0
   55.8657  152.4823   -5.4131 H   0  0  0  0  0  0  0  0  0  0  0  0
   53.7684  156.7659   -6.2131 H   0  0  0  0  0  0  0  0  0  0  0  0
   53.6296  157.4478   -2.2428 H   0  0  0  0  0  0  0  0  0  0  0  0
   55.0443  157.1829   -3.2905 H   0  0  0  0  0  0  0  0  0  0  0  0
   52.3280  155.9552   -3.9590 H   0  0  0  0  0  0  0  0  0  0  0  0
   53.2578  153.9428   -2.6691 H   0  0  0  0  0  0  0  0  0  0  0  0
   53.1415  155.3272   -1.6091 H   0  0  0  0  0  0  0  0  0  0  0  0
   53.8500  159.0144   -3.8547 H   0  0  0  0  0  0  0  0  0  0  0  0
  1  2  1  0  0  0  0
  1  7  2  0  0  0  0
  2  8  2  0  0  0  0
  3  4  2  0  0  0  0
  3  7  1  0  0  0  0
  4  6  1  0  0  0  0
  4  8  1  0  0  0  0
  5  6  1  0  0  0  0
  5 10  1  0  0  0  0
  6  9  1  0  0  0  0
  1 11  1  0  0  0  0
  2 12  1  0  0  0  0
  3 13  1  0  0  0  0
  5 14  1  0  0  0  0
  5 15  1  0  0  0  0
  6 16  1  0  0  0  0
  9 17  1  0  0  0  0
  9 18  1  0  0  0  0
 10 19  1  0  0  0  0
M  END
> <FRED Chemgauss4 score>
-6.184623

$$$$
C78950515	P123230050
  -OEChem-05122015083D

 35 36  0     0  0  0  0  0  0999 V2000
   60.8385  160.5044   -6.9661 C   0  0  0  0  0  0  0  0  0  0  0  0
   60.0679  159.9987   -5.9192 C   0  0  0  0  0  0  0  0  0  0  0  0
   56.9487  158.8201   -1.8283 C   0  0  0  0  0  0  0  0  0  0  0  0
   60.4896  162.7476   -6.1393 C   0  0  0  0  0  0  0  0  0  0  0  0
   56.1139  158.1729   -3.9890 C   0  0  0  0  0  0  0  0  0  0  0  0
   55.6912  158.5401   -1.3183 C   0  0  0  0  0  0  0  0  0  0  0  0
   61.0494  161.8789   -7.0761 C   0  0  0  0  0  0  0  0  0  0  0  0
   57.1559  158.6303   -3.1900 C   0  0  0  0  0  0  0  0  0  0  0  0
   59.5081  160.8674   -4.9824 C   0  0  0  0  0  0  0  0  0  0  0  0
   59.7190  162.2418   -5.0924 C   0  0  0  0  0  0  0  0  0  0  0  0
   54.8938  157.9217   -3.3823 C   0  0  0  0  0  0  0  0  0  0  0  0
   53.7702  157.4422   -4.1685 C   0  0  0  0  0  0  0  0  0  0  0  0
   61.8733  162.4183   -8.1959 C   0  0  0  0  0  0  0  0  0  0  0  0
   58.4995  158.9184   -3.7949 C   0  0  0  0  0  0  0  0  0  0  0  0
   54.6547  158.0942   -2.0629 N   0  0  0  0  0  0  0  0  0  0  0  0
   53.9861  157.2678   -5.4610 N   0  0  0  0  0  0  0  0  0  0  0  0
   52.5163  157.1740   -3.6085 N   0  0  0  0  0  0  0  0  0  0  0  0
   58.7332  160.3210   -3.9347 N   0  0  0  0  0  0  0  0  0  0  0  0
   52.8460  156.8058   -6.1263 O   0  0  0  0  0  0  0  0  0  0  0  0
   58.9815  163.4681   -3.8447 Br  0  0  0  0  0  0  0  0  0  0  0  0
   61.2705  159.8202   -7.6919 H   0  0  0  0  0  0  0  0  0  0  0  0
   59.9112  158.9254   -5.8452 H   0  0  0  0  0  0  0  0  0  0  0  0
   57.7411  159.1758   -1.1786 H   0  0  0  0  0  0  0  0  0  0  0  0
   60.6600  163.8179   -6.2338 H   0  0  0  0  0  0  0  0  0  0  0  0
   56.2547  158.0181   -5.0542 H   0  0  0  0  0  0  0  0  0  0  0  0
   55.4781  158.6717   -0.2626 H   0  0  0  0  0  0  0  0  0  0  0  0
   61.2402  162.6396   -9.0640 H   0  0  0  0  0  0  0  0  0  0  0  0
   62.3931  163.3391   -7.9008 H   0  0  0  0  0  0  0  0  0  0  0  0
   62.6466  161.7018   -8.5029 H   0  0  0  0  0  0  0  0  0  0  0  0
   59.3000  158.5034   -3.1728 H   0  0  0  0  0  0  0  0  0  0  0  0
   58.5895  158.4636   -4.7870 H   0  0  0  0  0  0  0  0  0  0  0  0
   52.3384  157.2830   -2.6166 H   0  0  0  0  0  0  0  0  0  0  0  0
   51.7504  156.8199   -4.1717 H   0  0  0  0  0  0  0  0  0  0  0  0
   58.3425  160.9674   -3.2773 H   0  0  0  0  0  0  0  0  0  0  0  0
   53.1697  156.7334   -7.0401 H   0  0  0  0  0  0  0  0  0  0  0  0
  1  2  2  0  0  0  0
  1  7  1  0  0  0  0
  2  9  1  0  0  0  0
  3  6  2  0  0  0  0
  3  8  1  0  0  0  0
  4  7  2  0  0  0  0
  4 10  1  0  0  0  0
  5  8  2  0  0  0  0
  5 11  1  0  0  0  0
  6 15  1  0  0  0  0
  7 13  1  0  0  0  0
  8 14  1  0  0  0  0
  9 10  2  0  0  0  0
  9 18  1  0  0  0  0
 10 20  1  0  0  0  0
 11 12  1  0  0  0  0
 11 15  2  0  0  0  0
 12 16  2  0  0  0  0
 12 17  1  0  0  0  0
 14 18  1  0  0  0  0
 16 19  1  0  0  0  0
  1 21  1  0  0  0  0
  2 22  1  0  0  0  0
  3 23  1  0  0  0  0
  4 24  1  0  0  0  0
  5 25  1  0  0  0  0
  6 26  1  0  0  0  0
 13 27  1  0  0  0  0
 13 28  1  0  0  0  0
 13 29  1  0  0  0  0
 14 30  1  0  0  0  0
 14 31  1  0  0  0  0
 17 32  1  0  0  0  0
 17 33  1  0  0  0  0
 18 34  1  0  0  0  0
 19 35  1  0  0  0  0
M  END
> <FRED Chemgauss4 score>
-6.183856

$$$$
C85249013	P133397388
  -OEChem-05122015083D

 29 29  0     1  0  0  0  0  0999 V2000
   56.6473  157.1112   -5.9056 C   0  0  0  0  0  0  0  0  0  0  0  0
   56.9747  154.2132   -6.0631 C   0  0  0  0  0  0  0  0  0  0  0  0
   58.1159  155.0834   -6.5563 C   0  0  0  0  0  0  0  0  0  0  0  0
   55.6591  154.8641   -6.4419 C   0  0  0  0  0  0  0  0  0  0  0  0
   58.0303  156.4828   -5.9720 C   0  0  2  0  0  0  0  0  0  0  0  0
   54.2020  156.7908   -5.9094 C   0  0  0  0  0  0  0  0  0  0  0  0
   54.3148  156.0314   -3.4768 C   0  0  0  0  0  0  0  0  0  0  0  0
   53.4486  156.1900   -4.7226 C   0  0  2  0  0  0  0  0  0  0  0  0
   55.5528  156.2537   -6.0050 N   0  0  0  0  0  0  0  0  0  0  0  0
   58.5153  156.4799   -4.5705 N   0  0  0  0  0  0  0  0  0  0  0  0
   56.5501  158.3259   -5.7032 O   0  0  0  0  0  0  0  0  0  0  0  0
   53.5169  155.4924   -2.4271 O   0  0  0  0  0  0  0  0  0  0  0  0
   52.9304  154.9086   -5.0816 O   0  0  0  0  0  0  0  0  0  0  0  0
   57.0396  153.2146   -6.5088 H   0  0  0  0  0  0  0  0  0  0  0  0
   57.0353  154.0876   -4.9754 H   0  0  0  0  0  0  0  0  0  0  0  0
   59.0797  154.6128   -6.3267 H   0  0  0  0  0  0  0  0  0  0  0  0
   58.0622  155.1510   -7.6512 H   0  0  0  0  0  0  0  0  0  0  0  0
   55.5268  154.8575   -7.5305 H   0  0  0  0  0  0  0  0  0  0  0  0
   54.8349  154.2933   -5.9989 H   0  0  0  0  0  0  0  0  0  0  0  0
   58.6735  157.1470   -6.5532 H   0  0  0  0  0  0  0  0  0  0  0  0
   53.6756  156.5607   -6.8418 H   0  0  0  0  0  0  0  0  0  0  0  0
   54.2542  157.8803   -5.8133 H   0  0  0  0  0  0  0  0  0  0  0  0
   54.7055  156.9978   -3.1437 H   0  0  0  0  0  0  0  0  0  0  0  0
   55.1445  155.3385   -3.6499 H   0  0  0  0  0  0  0  0  0  0  0  0
   52.5843  156.8216   -4.4851 H   0  0  0  0  0  0  0  0  0  0  0  0
   58.2137  157.2165   -3.9752 H   0  0  0  0  0  0  0  0  0  0  0  0
   59.2687  155.8728   -4.3431 H   0  0  0  0  0  0  0  0  0  0  0  0
   54.0971  155.4055   -1.6547 H   0  0  0  0  0  0  0  0  0  0  0  0
   52.3344  155.0551   -5.8313 H   0  0  0  0  0  0  0  0  0  0  0  0
  1  5  1  0  0  0  0
  1  9  1  0  0  0  0
  1 11  2  0  0  0  0
  2  3  1  0  0  0  0
  2  4  1  0  0  0  0
  3  5  1  0  0  0  0
  4  9  1  0  0  0  0
  5 10  1  0  0  0  0
  6  8  1  0  0  0  0
  6  9  1  0  0  0  0
  7  8  1  0  0  0  0
  7 12  1  0  0  0  0
  8 13  1  0  0  0  0
  2 14  1  0  0  0  0
  2 15  1  0  0  0  0
  3 16  1  0  0  0  0
  3 17  1  0  0  0  0
  4 18  1  0  0  0  0
  4 19  1  0  0  0  0
  5 20  1  0  0  0  0
  6 21  1  0  0  0  0
  6 22  1  0  0  0  0
  7 23  1  0  0  0  0
  7 24  1  0  0  0  0
  8 25  1  0  0  0  0
 10 26  1  0  0  0  0
 10 27  1  0  0  0  0
 12 28  1  0  0  0  0
 13 29  1  0  0  0  0
M  END
> <FRED Chemgauss4 score>
-6.182292

$$$$
C34797558	P51637068
  -OEChem-05122015083D

 24 25  0     1  0  0  0  0  0999 V2000
   59.1534  160.7390   -1.1159 C   0  0  0  0  0  0  0  0  0  0  0  0
   59.1702  160.0771   -2.3238 C   0  0  0  0  0  0  0  0  0  0  0  0
   56.9384  160.2278   -0.8665 C   0  0  0  0  0  0  0  0  0  0  0  0
   56.9550  159.5665   -2.0748 C   0  0  0  0  0  0  0  0  0  0  0  0
   55.7224  158.9253   -2.5815 C   0  0  0  0  0  0  0  0  0  0  0  0
   54.3650  157.8513   -3.8070 C   0  0  0  0  0  0  0  0  0  0  0  0
   54.8125  156.1319   -5.6059 C   0  0  0  0  0  0  0  0  0  0  0  0
   53.7850  157.0511   -4.9502 C   0  0  1  0  0  0  0  0  0  0  0  0
   54.5420  158.9370   -1.9318 N   0  5  0  0  0  0  0  0  0  0  0  0
   58.0372  160.8262   -0.3655 N   0  0  0  0  0  0  0  0  0  0  0  0
   58.0713  159.4790   -2.8250 N   0  0  0  0  0  0  0  0  0  0  0  0
   55.6389  158.2612   -3.7421 N   0  0  0  0  0  0  0  0  0  0  0  0
   53.6636  158.2413   -2.7245 N   0  0  0  0  0  0  0  0  0  0  0  0
   52.6141  156.2182   -4.5360 N   0  3  0  0  0  0  0  0  0  0  0  0
   60.0361  161.2205   -0.7137 H   0  0  0  0  0  0  0  0  0  0  0  0
   60.0682  160.0054   -2.9252 H   0  0  0  0  0  0  0  0  0  0  0  0
   56.0478  160.3047   -0.2529 H   0  0  0  0  0  0  0  0  0  0  0  0
   55.2502  155.4270   -4.8902 H   0  0  0  0  0  0  0  0  0  0  0  0
   54.3541  155.5463   -6.4107 H   0  0  0  0  0  0  0  0  0  0  0  0
   55.6322  156.7137   -6.0423 H   0  0  0  0  0  0  0  0  0  0  0  0
   53.3854  157.7292   -5.7134 H   0  0  0  0  0  0  0  0  0  0  0  0
   51.7636  156.5476   -4.9958 H   0  0  0  0  0  0  0  0  0  0  0  0
   52.4799  156.2733   -3.5248 H   0  0  0  0  0  0  0  0  0  0  0  0
   52.7653  155.2409   -4.7919 H   0  0  0  0  0  0  0  0  0  0  0  0
  1  2  2  0  0  0  0
  1 10  1  0  0  0  0
  2 11  1  0  0  0  0
  3  4  1  0  0  0  0
  3 10  2  0  0  0  0
  4  5  1  0  0  0  0
  4 11  2  0  0  0  0
  5  9  1  0  0  0  0
  5 12  2  0  0  0  0
  6  8  1  0  0  0  0
  6 12  1  0  0  0  0
  6 13  2  0  0  0  0
  7  8  1  0  0  0  0
  8 14  1  0  0  0  0
  9 13  1  0  0  0  0
  1 15  1  0  0  0  0
  2 16  1  0  0  0  0
  3 17  1  0  0  0  0
  7 18  1  0  0  0  0
  7 19  1  0  0  0  0
  7 20  1  0  0  0  0
  8 21  1  0  0  0  0
 14 22  1  0  0  0  0
 14 23  1  0  0  0  0
 14 24  1  0  0  0  0
M  CHG  2   9  -1  14   1
M  END
> <FRED Chemgauss4 score>
-6.181176

$$$$
C82471531	P128883666
  -OEChem-05122015083D

 23 23  0     1  0  0  0  0  0999 V2000
   56.7809  156.9472   -6.8058 C   0  0  0  0  0  0  0  0  0  0  0  0
   56.5523  155.6731   -6.4999 C   0  0  0  0  0  0  0  0  0  0  0  0
   56.3513  157.9326   -5.8127 C   0  0  0  0  0  0  0  0  0  0  0  0
   55.8991  155.3130   -5.2199 C   0  0  0  0  0  0  0  0  0  0  0  0
   53.4013  156.0498   -3.3451 C   0  0  0  0  0  0  0  0  0  0  0  0
   55.2523  157.1835   -2.0883 C   0  0  0  0  0  0  0  0  0  0  0  0
   54.9049  156.1103   -3.1085 C   0  0  2  0  0  0  0  0  0  0  0  0
   55.7797  157.6807   -4.6844 N   0  0  0  0  0  0  0  0  0  0  0  0
   55.5449  156.3635   -4.3723 N   0  0  0  0  0  0  0  0  0  0  0  0
   51.7552  156.2336   -5.0588 N   0  0  0  0  0  0  0  0  0  0  0  0
   53.0774  156.2950   -4.6696 N   0  0  0  0  0  0  0  0  0  0  0  0
   55.7033  154.1243   -4.9679 O   0  0  0  0  0  0  0  0  0  0  0  0
   52.5953  155.7744   -2.4583 O   0  0  0  0  0  0  0  0  0  0  0  0
   57.2531  157.2679   -7.7235 H   0  0  0  0  0  0  0  0  0  0  0  0
   56.8356  154.8724   -7.1729 H   0  0  0  0  0  0  0  0  0  0  0  0
   56.5476  158.9834   -6.0814 H   0  0  0  0  0  0  0  0  0  0  0  0
   54.9049  158.1691   -2.4150 H   0  0  0  0  0  0  0  0  0  0  0  0
   54.7919  156.9637   -1.1191 H   0  0  0  0  0  0  0  0  0  0  0  0
   56.3355  157.2491   -1.9347 H   0  0  0  0  0  0  0  0  0  0  0  0
   55.2603  155.1331   -2.7638 H   0  0  0  0  0  0  0  0  0  0  0  0
   51.6309  156.9294   -5.7933 H   0  0  0  0  0  0  0  0  0  0  0  0
   51.1989  156.5571   -4.2684 H   0  0  0  0  0  0  0  0  0  0  0  0
   53.7744  156.5213   -5.3720 H   0  0  0  0  0  0  0  0  0  0  0  0
  1  2  2  0  0  0  0
  1  3  1  0  0  0  0
  2  4  1  0  0  0  0
  3  8  2  0  0  0  0
  4  9  1  0  0  0  0
  4 12  2  0  0  0  0
  5  7  1  0  0  0  0
  5 11  1  0  0  0  0
  5 13  2  0  0  0  0
  6  7  1  0  0  0  0
  7  9  1  0  0  0  0
  8  9  1  0  0  0  0
 10 11  1  0  0  0  0
  1 14  1  0  0  0  0
  2 15  1  0  0  0  0
  3 16  1  0  0  0  0
  6 17  1  0  0  0  0
  6 18  1  0  0  0  0
  6 19  1  0  0  0  0
  7 20  1  0  0  0  0
 10 21  1  0  0  0  0
 10 22  1  0  0  0  0
 11 23  1  0  0  0  0
M  END
> <FRED Chemgauss4 score>
-6.181081

$$$$
C70588816	P108883946
  -OEChem-05122015083D

 24 25  0     1  0  0  0  0  0999 V2000
   59.3048  155.3568   -5.9948 C   0  0  0  0  0  0  0  0  0  0  0  0
   57.6321  156.5029   -5.4989 C   0  0  0  0  0  0  0  0  0  0  0  0
   54.1226  156.7695   -3.9590 C   0  0  0  0  0  0  0  0  0  0  0  0
   52.9824  155.0147   -5.3118 C   0  0  0  0  0  0  0  0  0  0  0  0
   54.3443  154.6391   -5.8555 C   0  0  0  0  0  0  0  0  0  0  0  0
   55.4647  156.1325   -4.2910 C   0  0  2  0  0  0  0  0  0  0  0  0
   56.2425  157.0254   -5.2566 C   0  0  0  0  0  0  0  0  0  0  0  0
   57.9399  155.3193   -5.9761 N   0  0  0  0  0  0  0  0  0  0  0  0
   58.7696  157.2051   -5.2481 N   0  0  0  0  0  0  0  0  0  0  0  0
   59.8609  156.4892   -5.5590 N   0  0  0  0  0  0  0  0  0  0  0  0
   53.0075  156.2678   -4.5907 N   0  0  0  0  0  0  0  0  0  0  0  0
   55.3200  154.7582   -4.7796 N   0  0  0  0  0  0  0  0  0  0  0  0
   54.0636  157.7503   -3.2132 O   0  0  0  0  0  0  0  0  0  0  0  0
   59.8997  154.5217   -6.3407 H   0  0  0  0  0  0  0  0  0  0  0  0
   52.2611  155.1356   -6.1264 H   0  0  0  0  0  0  0  0  0  0  0  0
   52.6040  154.2445   -4.6347 H   0  0  0  0  0  0  0  0  0  0  0  0
   54.3394  153.6200   -6.2621 H   0  0  0  0  0  0  0  0  0  0  0  0
   54.6104  155.3130   -6.6773 H   0  0  0  0  0  0  0  0  0  0  0  0
   56.0373  156.1175   -3.3235 H   0  0  0  0  0  0  0  0  0  0  0  0
   56.2914  158.0427   -4.8543 H   0  0  0  0  0  0  0  0  0  0  0  0
   55.7002  157.0968   -6.2054 H   0  0  0  0  0  0  0  0  0  0  0  0
   60.8071  156.8413   -5.4424 H   0  0  0  0  0  0  0  0  0  0  0  0
   52.1496  156.8104   -4.5481 H   0  0  0  0  0  0  0  0  0  0  0  0
   55.0299  154.1539   -3.9966 H   0  0  0  0  0  0  0  0  0  0  0  0
  1  8  2  0  0  0  0
  1 10  1  0  0  0  0
  2  7  1  0  0  0  0
  2  8  1  0  0  0  0
  2  9  2  0  0  0  0
  3  6  1  0  0  0  0
  3 11  1  0  0  0  0
  3 13  2  0  0  0  0
  4  5  1  0  0  0  0
  4 11  1  0  0  0  0
  5 12  1  0  0  0  0
  6  7  1  0  0  0  0
  6 12  1  0  0  0  0
  9 10  1  0  0  0  0
  1 14  1  0  0  0  0
  4 15  1  0  0  0  0
  4 16  1  0  0  0  0
  5 17  1  0  0  0  0
  5 18  1  0  0  0  0
  6 19  1  0  0  0  0
  7 20  1  0  0  0  0
  7 21  1  0  0  0  0
 10 22  1  0  0  0  0
 11 23  1  0  0  0  0
 12 24  1  0  0  0  0
M  END
> <FRED Chemgauss4 score>
-6.178394

$$$$
C04544532	P06219521
  -OEChem-05122015083D

 23 23  0     1  0  0  0  0  0999 V2000
   53.9461  155.5090   -5.8655 C   0  0  1  0  0  0  0  0  0  0  0  0
   53.8459  157.0182   -6.1156 C   0  0  2  0  0  0  0  0  0  0  0  0
   53.3189  155.1142   -4.5270 C   0  0  1  0  0  0  0  0  0  0  0  0
   54.3886  157.7836   -4.8991 C   0  0  1  0  0  0  0  0  0  0  0  0
   53.9104  155.9785   -3.4111 C   0  0  1  0  0  0  0  0  0  0  0  0
   54.2107  159.2926   -5.0157 C   0  0  0  0  0  0  0  0  0  0  0  0
   53.7179  157.3658   -3.7006 O   0  0  0  0  0  0  0  0  0  0  0  0
   53.3454  154.7960   -6.9394 O   0  0  0  0  0  0  0  0  0  0  0  0
   52.4825  157.3673   -6.3551 O   0  0  0  0  0  0  0  0  0  0  0  0
   51.9049  155.3116   -4.5823 O   0  0  0  0  0  0  0  0  0  0  0  0
   53.2805  155.6291   -2.1823 O   0  0  0  0  0  0  0  0  0  0  0  0
   55.0633  159.8885   -4.1476 F   0  0  0  0  0  0  0  0  0  0  0  0
   55.0085  155.2339   -5.8494 H   0  0  0  0  0  0  0  0  0  0  0  0
   54.4037  157.2769   -7.0231 H   0  0  0  0  0  0  0  0  0  0  0  0
   53.4736  154.0483   -4.3259 H   0  0  0  0  0  0  0  0  0  0  0  0
   55.4600  157.5741   -4.7836 H   0  0  0  0  0  0  0  0  0  0  0  0
   54.9838  155.7773   -3.3049 H   0  0  0  0  0  0  0  0  0  0  0  0
   53.1928  159.5794   -4.7582 H   0  0  0  0  0  0  0  0  0  0  0  0
   54.4468  159.6290   -6.0237 H   0  0  0  0  0  0  0  0  0  0  0  0
   53.8306  155.0413   -7.7434 H   0  0  0  0  0  0  0  0  0  0  0  0
   52.4675  158.3242   -6.5071 H   0  0  0  0  0  0  0  0  0  0  0  0
   51.5785  154.7459   -5.2978 H   0  0  0  0  0  0  0  0  0  0  0  0
   53.6758  156.1921   -1.4985 H   0  0  0  0  0  0  0  0  0  0  0  0
  1  2  1  0  0  0  0
  1  3  1  0  0  0  0
  1  8  1  0  0  0  0
  2  4  1  0  0  0  0
  2  9  1  0  0  0  0
  3  5  1  0  0  0  0
  3 10  1  0  0  0  0
  4  6  1  0  0  0  0
  4  7  1  0  0  0  0
  5  7  1  0  0  0  0
  5 11  1  0  0  0  0
  6 12  1  0  0  0  0
  1 13  1  0  0  0  0
  2 14  1  0  0  0  0
  3 15  1  0  0  0  0
  4 16  1  0  0  0  0
  5 17  1  0  0  0  0
  6 18  1  0  0  0  0
  6 19  1  0  0  0  0
  8 20  1  0  0  0  0
  9 21  1  0  0  0  0
 10 22  1  0  0  0  0
 11 23  1  0  0  0  0
M  END
> <FRED Chemgauss4 score>
-6.176821

$$$$
C72344410	P112473852
  -OEChem-05122015083D

 28 28  0     1  0  0  0  0  0999 V2000
   53.2790  156.0326   -3.6381 C   0  0  0  0  0  0  0  0  0  0  0  0
   56.4567  153.7076   -6.6283 C   0  0  0  0  0  0  0  0  0  0  0  0
   56.7384  157.0957   -6.3686 C   0  0  0  0  0  0  0  0  0  0  0  0
   57.1693  155.8399   -5.6162 C   0  0  0  0  0  0  0  0  0  0  0  0
   54.5274  157.3335   -5.3233 C   0  0  0  0  0  0  0  0  0  0  0  0
   54.9600  154.8309   -4.9456 C   0  0  0  0  0  0  0  0  0  0  0  0
   54.6118  156.1830   -4.3139 C   0  0  2  0  0  0  0  0  0  0  0  0
   55.4025  152.6312   -6.7308 C   0  0  0  0  0  0  0  0  0  0  0  0
   55.8243  157.9447   -5.6099 N   0  0  0  0  0  0  0  0  0  0  0  0
   56.1857  154.7650   -5.7483 N   0  0  0  0  0  0  0  0  0  0  0  0
   52.2562  155.7040   -4.4960 N   0  0  0  0  0  0  0  0  0  0  0  0
   53.1417  156.1775   -2.4258 O   0  0  0  0  0  0  0  0  0  0  0  0
   57.4805  153.6159   -7.3103 O   0  0  0  0  0  0  0  0  0  0  0  0
   57.6434  157.6853   -6.5768 H   0  0  0  0  0  0  0  0  0  0  0  0
   56.3292  156.8461   -7.3596 H   0  0  0  0  0  0  0  0  0  0  0  0
   58.0934  155.4744   -6.0285 H   0  0  0  0  0  0  0  0  0  0  0  0
   57.3061  156.0664   -4.5743 H   0  0  0  0  0  0  0  0  0  0  0  0
   54.0471  157.0086   -6.2484 H   0  0  0  0  0  0  0  0  0  0  0  0
   53.8816  158.1115   -4.9104 H   0  0  0  0  0  0  0  0  0  0  0  0
   55.0105  154.0519   -4.1405 H   0  0  0  0  0  0  0  0  0  0  0  0
   54.1117  154.4482   -5.5770 H   0  0  0  0  0  0  0  0  0  0  0  0
   55.3373  156.4261   -3.5336 H   0  0  0  0  0  0  0  0  0  0  0  0
   54.7018  152.8957   -7.5154 H   0  0  0  0  0  0  0  0  0  0  0  0
   54.8841  152.5512   -5.7810 H   0  0  0  0  0  0  0  0  0  0  0  0
   55.8825  151.6866   -6.9639 H   0  0  0  0  0  0  0  0  0  0  0  0
   56.2704  158.2444   -4.7310 H   0  0  0  0  0  0  0  0  0  0  0  0
   52.4653  155.5914   -5.4825 H   0  0  0  0  0  0  0  0  0  0  0  0
   51.3004  155.5697   -4.1823 H   0  0  0  0  0  0  0  0  0  0  0  0
  1  7  1  0  0  0  0
  1 11  1  0  0  0  0
  1 12  2  0  0  0  0
  2  8  1  0  0  0  0
  2 10  1  0  0  0  0
  2 13  2  0  0  0  0
  3  4  1  0  0  0  0
  3  9  1  0  0  0  0
  4 10  1  0  0  0  0
  5  7  1  0  0  0  0
  5  9  1  0  0  0  0
  6  7  1  0  0  0  0
  6 10  1  0  0  0  0
  3 14  1  0  0  0  0
  3 15  1  0  0  0  0
  4 16  1  0  0  0  0
  4 17  1  0  0  0  0
  5 18  1  0  0  0  0
  5 19  1  0  0  0  0
  6 20  1  0  0  0  0
  6 21  1  0  0  0  0
  7 22  1  0  0  0  0
  8 23  1  0  0  0  0
  8 24  1  0  0  0  0
  8 25  1  0  0  0  0
  9 26  1  0  0  0  0
 11 27  1  0  0  0  0
 11 28  1  0  0  0  0
M  END
> <FRED Chemgauss4 score>
-6.169553

$$$$
C87667525	P137128337
  -OEChem-05122015083D

 32 33  0     1  0  0  0  0  0999 V2000
   53.0554  155.3038   -3.4772 C   0  0  0  0  0  0  0  0  0  0  0  0
   54.8696  155.9224   -4.5547 C   0  0  0  0  0  0  0  0  0  0  0  0
   53.6849  155.2514   -4.7353 C   0  0  0  0  0  0  0  0  0  0  0  0
   55.5851  158.5304   -2.3853 C   0  0  0  0  0  0  0  0  0  0  0  0
   59.8866  161.2766   -4.4061 C   0  0  0  0  0  0  0  0  0  0  0  0
   58.9007  161.0467   -3.2704 C   0  0  0  0  0  0  0  0  0  0  0  0
   59.3288  160.5434   -5.6139 C   0  0  0  0  0  0  0  0  0  0  0  0
   57.5235  161.4129   -3.8158 C   0  0  2  0  0  0  0  0  0  0  0  0
   55.9346  157.0705   -2.5792 C   0  0  0  0  0  0  0  0  0  0  0  0
   56.3904  160.7988   -3.0120 C   0  0  0  0  0  0  0  0  0  0  0  0
   53.7803  155.9564   -2.5647 N   0  0  0  0  0  0  0  0  0  0  0  0
   54.8776  156.3201   -3.2501 N   0  0  0  0  0  0  0  0  0  0  0  0
   53.2340  154.6751   -5.8653 N   0  0  0  0  0  0  0  0  0  0  0  0
   56.4874  159.3753   -3.0361 N   0  0  0  0  0  0  0  0  0  0  0  0
   54.6208  158.9141   -1.7287 O   0  0  0  0  0  0  0  0  0  0  0  0
   57.5347  160.8009   -5.5330 S   0  0  0  0  0  0  0  0  0  0  0  0
   52.0986  154.8955   -3.1838 H   0  0  0  0  0  0  0  0  0  0  0  0
   55.6884  156.1453   -5.2255 H   0  0  0  0  0  0  0  0  0  0  0  0
   59.9800  162.3493   -4.6176 H   0  0  0  0  0  0  0  0  0  0  0  0
   60.8848  160.9072   -4.1493 H   0  0  0  0  0  0  0  0  0  0  0  0
   58.9368  159.9970   -2.9504 H   0  0  0  0  0  0  0  0  0  0  0  0
   59.1529  161.6592   -2.3980 H   0  0  0  0  0  0  0  0  0  0  0  0
   59.7404  160.9263   -6.5515 H   0  0  0  0  0  0  0  0  0  0  0  0
   59.5330  159.4699   -5.5514 H   0  0  0  0  0  0  0  0  0  0  0  0
   57.4088  162.5021   -3.8493 H   0  0  0  0  0  0  0  0  0  0  0  0
   56.1204  156.6015   -1.6064 H   0  0  0  0  0  0  0  0  0  0  0  0
   56.8467  156.9831   -3.1804 H   0  0  0  0  0  0  0  0  0  0  0  0
   55.4431  161.0958   -3.4490 H   0  0  0  0  0  0  0  0  0  0  0  0
   56.4522  161.1393   -1.9844 H   0  0  0  0  0  0  0  0  0  0  0  0
   52.3470  154.1472   -5.8998 H   0  0  0  0  0  0  0  0  0  0  0  0
   53.7939  154.6488   -6.7328 H   0  0  0  0  0  0  0  0  0  0  0  0
   57.2765  158.9453   -3.5270 H   0  0  0  0  0  0  0  0  0  0  0  0
  1  3  1  0  0  0  0
  1 11  2  0  0  0  0
  2  3  2  0  0  0  0
  2 12  1  0  0  0  0
  3 13  1  0  0  0  0
  4  9  1  0  0  0  0
  4 14  1  0  0  0  0
  4 15  2  0  0  0  0
  5  6  1  0  0  0  0
  5  7  1  0  0  0  0
  6  8  1  0  0  0  0
  7 16  1  0  0  0  0
  8 10  1  0  0  0  0
  8 16  1  0  0  0  0
  9 12  1  0  0  0  0
 10 14  1  0  0  0  0
 11 12  1  0  0  0  0
  1 17  1  0  0  0  0
  2 18  1  0  0  0  0
  5 19  1  0  0  0  0
  5 20  1  0  0  0  0
  6 21  1  0  0  0  0
  6 22  1  0  0  0  0
  7 23  1  0  0  0  0
  7 24  1  0  0  0  0
  8 25  1  0  0  0  0
  9 26  1  0  0  0  0
  9 27  1  0  0  0  0
 10 28  1  0  0  0  0
 10 29  1  0  0  0  0
 13 30  1  0  0  0  0
 13 31  1  0  0  0  0
 14 32  1  0  0  0  0
M  END
> <FRED Chemgauss4 score>
-6.168303

$$$$
C73602805	P114608525
  -OEChem-05122015083D

 55 58  0     0  0  0  0  0  0999 V2000
   59.6903  158.8814   -6.9992 C   0  0  0  0  0  0  0  0  0  0  0  0
   60.3599  159.4046   -8.1036 C   0  0  0  0  0  0  0  0  0  0  0  0
   59.5980  159.6084   -5.8068 C   0  0  0  0  0  0  0  0  0  0  0  0
   60.9573  160.6673   -8.0525 C   0  0  0  0  0  0  0  0  0  0  0  0
   61.0040  162.9321   -5.2268 C   0  0  0  0  0  0  0  0  0  0  0  0
   60.1926  160.8836   -5.7316 C   0  0  0  0  0  0  0  0  0  0  0  0
   60.2933  161.8721   -4.7129 C   0  0  0  0  0  0  0  0  0  0  0  0
   60.8572  161.3827   -6.8539 C   0  0  0  0  0  0  0  0  0  0  0  0
   60.1215  160.8594   -2.4653 C   0  0  0  0  0  0  0  0  0  0  0  0
   59.7506  161.8185   -3.3347 C   0  0  0  0  0  0  0  0  0  0  0  0
   57.5281  161.4996    0.1820 C   0  0  0  0  0  0  0  0  0  0  0  0
   59.5872  160.7244   -1.0680 C   0  0  0  0  0  0  0  0  0  0  0  0
   58.7449  162.8661   -2.9257 C   0  0  0  0  0  0  0  0  0  0  0  0
   58.6656  163.0093   -1.4080 C   0  0  0  0  0  0  0  0  0  0  0  0
   56.6013  158.0788   -0.8534 C   0  0  0  0  0  0  0  0  0  0  0  0
   55.2402  160.0509   -1.1261 C   0  0  0  0  0  0  0  0  0  0  0  0
   56.0670  157.5271   -2.1796 C   0  0  0  0  0  0  0  0  0  0  0  0
   54.7072  159.4993   -2.4528 C   0  0  0  0  0  0  0  0  0  0  0  0
   57.0984  160.0713    0.4110 C   0  0  0  0  0  0  0  0  0  0  0  0
   54.2072  157.5060   -3.7146 C   0  0  0  0  0  0  0  0  0  0  0  0
   53.6606  156.1061   -3.5021 C   0  0  0  0  0  0  0  0  0  0  0  0
   61.3395  162.6278   -6.5188 N   0  0  0  0  0  0  0  0  0  0  0  0
   58.5310  161.7005   -0.7698 N   0  0  0  0  0  0  0  0  0  0  0  0
   56.5923  159.5468   -0.8560 N   0  0  0  0  0  0  0  0  0  0  0  0
   54.7148  158.0314   -2.4487 N   0  0  0  0  0  0  0  0  0  0  0  0
   56.9873  162.4041    0.8228 O   0  0  0  0  0  0  0  0  0  0  0  0
   53.1358  155.6130   -4.7282 O   0  0  0  0  0  0  0  0  0  0  0  0
   59.2320  157.8980   -7.0638 H   0  0  0  0  0  0  0  0  0  0  0  0
   60.4188  158.8228   -9.0196 H   0  0  0  0  0  0  0  0  0  0  0  0
   59.0716  159.1853   -4.9558 H   0  0  0  0  0  0  0  0  0  0  0  0
   61.4775  161.0745   -8.9131 H   0  0  0  0  0  0  0  0  0  0  0  0
   61.3042  163.8771   -4.7942 H   0  0  0  0  0  0  0  0  0  0  0  0
   60.8529  160.1142   -2.7712 H   0  0  0  0  0  0  0  0  0  0  0  0
   59.2102  159.7072   -0.9332 H   0  0  0  0  0  0  0  0  0  0  0  0
   60.3955  160.8856   -0.3463 H   0  0  0  0  0  0  0  0  0  0  0  0
   59.0035  163.8431   -3.3524 H   0  0  0  0  0  0  0  0  0  0  0  0
   57.7615  162.5841   -3.3235 H   0  0  0  0  0  0  0  0  0  0  0  0
   59.5791  163.4720   -1.0135 H   0  0  0  0  0  0  0  0  0  0  0  0
   57.8303  163.6650   -1.1419 H   0  0  0  0  0  0  0  0  0  0  0  0
   56.0016  157.6848   -0.0216 H   0  0  0  0  0  0  0  0  0  0  0  0
   57.6269  157.7148   -0.7168 H   0  0  0  0  0  0  0  0  0  0  0  0
   55.2592  161.1457   -1.1908 H   0  0  0  0  0  0  0  0  0  0  0  0
   54.5524  159.7838   -0.3122 H   0  0  0  0  0  0  0  0  0  0  0  0
   56.7542  157.7939   -2.9941 H   0  0  0  0  0  0  0  0  0  0  0  0
   56.0480  156.4323   -2.1147 H   0  0  0  0  0  0  0  0  0  0  0  0
   53.6820  159.8640   -2.5904 H   0  0  0  0  0  0  0  0  0  0  0  0
   55.3080  159.8923   -3.2843 H   0  0  0  0  0  0  0  0  0  0  0  0
   56.3149  160.0486    1.1724 H   0  0  0  0  0  0  0  0  0  0  0  0
   57.9573  159.4865    0.7493 H   0  0  0  0  0  0  0  0  0  0  0  0
   55.0274  157.5060   -4.4395 H   0  0  0  0  0  0  0  0  0  0  0  0
   53.4162  158.1740   -4.0685 H   0  0  0  0  0  0  0  0  0  0  0  0
   52.8466  156.1285   -2.7709 H   0  0  0  0  0  0  0  0  0  0  0  0
   54.4377  155.4196   -3.1503 H   0  0  0  0  0  0  0  0  0  0  0  0
   61.8654  163.2299   -7.1370 H   0  0  0  0  0  0  0  0  0  0  0  0
   52.7986  154.7205   -4.5491 H   0  0  0  0  0  0  0  0  0  0  0  0
  1  2  1  0  0  0  0
  1  3  2  0  0  0  0
  2  4  2  0  0  0  0
  3  6  1  0  0  0  0
  4  8  1  0  0  0  0
  5  7  2  0  0  0  0
  5 22  1  0  0  0  0
  6  7  1  0  0  0  0
  6  8  2  0  0  0  0
  7 10  1  0  0  0  0
  8 22  1  0  0  0  0
  9 10  2  0  0  0  0
  9 12  1  0  0  0  0
 10 13  1  0  0  0  0
 11 19  1  0  0  0  0
 11 23  1  0  0  0  0
 11 26  2  0  0  0  0
 12 23  1  0  0  0  0
 13 14  1  0  0  0  0
 14 23  1  0  0  0  0
 15 17  1  0  0  0  0
 15 24  1  0  0  0  0
 16 18  1  0  0  0  0
 16 24  1  0  0  0  0
 17 25  1  0  0  0  0
 18 25  1  0  0  0  0
 19 24  1  0  0  0  0
 20 21  1  0  0  0  0
 20 25  1  0  0  0  0
 21 27  1  0  0  0  0
  1 28  1  0  0  0  0
  2 29  1  0  0  0  0
  3 30  1  0  0  0  0
  4 31  1  0  0  0  0
  5 32  1  0  0  0  0
  9 33  1  0  0  0  0
 12 34  1  0  0  0  0
 12 35  1  0  0  0  0
 13 36  1  0  0  0  0
 13 37  1  0  0  0  0
 14 38  1  0  0  0  0
 14 39  1  0  0  0  0
 15 40  1  0  0  0  0
 15 41  1  0  0  0  0
 16 42  1  0  0  0  0
 16 43  1  0  0  0  0
 17 44  1  0  0  0  0
 17 45  1  0  0  0  0
 18 46  1  0  0  0  0
 18 47  1  0  0  0  0
 19 48  1  0  0  0  0
 19 49  1  0  0  0  0
 20 50  1  0  0  0  0
 20 51  1  0  0  0  0
 21 52  1  0  0  0  0
 21 53  1  0  0  0  0
 22 54  1  0  0  0  0
 27 55  1  0  0  0  0
M  END
> <FRED Chemgauss4 score>
-6.163915

$$$$
C38038841	P57193979
  -OEChem-05122015083D

 24 24  0     0  0  0  0  0  0999 V2000
   55.7710  157.0878   -3.5391 C   0  0  0  0  0  0  0  0  0  0  0  0
   53.7698  156.5131   -3.3909 C   0  0  0  0  0  0  0  0  0  0  0  0
   56.2190  160.1105   -2.0680 C   0  0  0  0  0  0  0  0  0  0  0  0
   57.6215  162.1689   -1.9765 C   0  0  0  0  0  0  0  0  0  0  0  0
   59.2532  159.6439   -1.2686 C   0  0  0  0  0  0  0  0  0  0  0  0
   56.0366  158.7101   -1.4997 C   0  0  0  0  0  0  0  0  0  0  0  0
   54.8258  156.3097   -4.1439 N   0  0  0  0  0  0  0  0  0  0  0  0
   54.0831  157.3748   -2.3864 N   0  0  0  0  0  0  0  0  0  0  0  0
   55.3663  157.7599   -2.4594 N   0  0  0  0  0  0  0  0  0  0  0  0
   52.5823  155.9165   -3.6436 N   0  0  0  0  0  0  0  0  0  0  0  0
   57.2897  160.8161   -1.5673 N   0  0  0  0  0  0  0  0  0  0  0  0
   55.4466  160.5704   -2.9115 O   0  0  0  0  0  0  0  0  0  0  0  0
   58.1786  160.3023   -0.6042 O   0  0  0  0  0  0  0  0  0  0  0  0
   56.7846  157.1533   -3.9140 H   0  0  0  0  0  0  0  0  0  0  0  0
   57.1118  162.8915   -1.3340 H   0  0  0  0  0  0  0  0  0  0  0  0
   57.3110  162.3375   -3.0113 H   0  0  0  0  0  0  0  0  0  0  0  0
   58.7001  162.3321   -1.9033 H   0  0  0  0  0  0  0  0  0  0  0  0
   59.9487  159.2416   -0.5280 H   0  0  0  0  0  0  0  0  0  0  0  0
   59.7688  160.3534   -1.9207 H   0  0  0  0  0  0  0  0  0  0  0  0
   58.8510  158.8252   -1.8700 H   0  0  0  0  0  0  0  0  0  0  0  0
   57.0171  158.3054   -1.2204 H   0  0  0  0  0  0  0  0  0  0  0  0
   55.4425  158.7716   -0.5808 H   0  0  0  0  0  0  0  0  0  0  0  0
   52.4389  155.3127   -4.4648 H   0  0  0  0  0  0  0  0  0  0  0  0
   51.7428  156.1129   -3.0813 H   0  0  0  0  0  0  0  0  0  0  0  0
  1  7  2  0  0  0  0
  1  9  1  0  0  0  0
  2  7  1  0  0  0  0
  2  8  2  0  0  0  0
  2 10  1  0  0  0  0
  3  6  1  0  0  0  0
  3 11  1  0  0  0  0
  3 12  2  0  0  0  0
  4 11  1  0  0  0  0
  5 13  1  0  0  0  0
  6  9  1  0  0  0  0
  8  9  1  0  0  0  0
 11 13  1  0  0  0  0
  1 14  1  0  0  0  0
  4 15  1  0  0  0  0
  4 16  1  0  0  0  0
  4 17  1  0  0  0  0
  5 18  1  0  0  0  0
  5 19  1  0  0  0  0
  5 20  1  0  0  0  0
  6 21  1  0  0  0  0
  6 22  1  0  0  0  0
 10 23  1  0  0  0  0
 10 24  1  0  0  0  0
M  END
> <FRED Chemgauss4 score>
-6.163624

$$$$
C41058784	P62326215
  -OEChem-05122015083D

 26 27  0     1  0  0  0  0  0999 V2000
   55.3837  157.5081   -2.5981 C   0  0  0  0  0  0  0  0  0  0  0  0
   54.7427  157.1003   -4.5424 C   0  0  0  0  0  0  0  0  0  0  0  0
   56.2368  159.0106   -0.6292 C   0  0  0  0  0  0  0  0  0  0  0  0
   57.4174  158.7517   -1.5119 C   0  0  0  0  0  0  0  0  0  0  0  0
   56.3093  157.7285   -1.4250 C   0  0  0  0  0  0  0  0  0  0  0  0
   56.7517  155.4196   -6.0615 C   0  0  0  0  0  0  0  0  0  0  0  0
   55.9636  156.5634   -6.6883 C   0  0  0  0  0  0  0  0  0  0  0  0
   54.5968  156.7761   -6.0154 C   0  0  1  0  0  0  0  0  0  0  0  0
   55.8501  157.2030   -3.8448 N   0  0  0  0  0  0  0  0  0  0  0  0
   54.0574  157.6006   -2.4805 N   0  0  0  0  0  0  0  0  0  0  0  0
   53.6716  157.3355   -3.7379 N   0  0  0  0  0  0  0  0  0  0  0  0
   53.7281  155.6351   -6.2004 N   0  0  0  0  0  0  0  0  0  0  0  0
   56.3859  158.9502    0.4425 H   0  0  0  0  0  0  0  0  0  0  0  0
   55.5342  159.7754   -0.9383 H   0  0  0  0  0  0  0  0  0  0  0  0
   57.5089  159.3424   -2.4159 H   0  0  0  0  0  0  0  0  0  0  0  0
   58.3624  158.5166   -1.0365 H   0  0  0  0  0  0  0  0  0  0  0  0
   56.5444  156.8189   -0.8453 H   0  0  0  0  0  0  0  0  0  0  0  0
   56.1811  154.4860   -6.0945 H   0  0  0  0  0  0  0  0  0  0  0  0
   57.6872  155.2638   -6.6082 H   0  0  0  0  0  0  0  0  0  0  0  0
   57.0045  155.6332   -5.0184 H   0  0  0  0  0  0  0  0  0  0  0  0
   56.5694  157.4766   -6.6346 H   0  0  0  0  0  0  0  0  0  0  0  0
   55.8202  156.3402   -7.7532 H   0  0  0  0  0  0  0  0  0  0  0  0
   54.0896  157.6102   -6.5161 H   0  0  0  0  0  0  0  0  0  0  0  0
   52.6836  157.3331   -3.9627 H   0  0  0  0  0  0  0  0  0  0  0  0
   53.7859  155.1176   -7.0586 H   0  0  0  0  0  0  0  0  0  0  0  0
   52.9572  155.5073   -5.5702 H   0  0  0  0  0  0  0  0  0  0  0  0
  1  5  1  0  0  0  0
  1  9  1  0  0  0  0
  1 10  2  0  0  0  0
  2  8  1  0  0  0  0
  2  9  2  0  0  0  0
  2 11  1  0  0  0  0
  3  4  1  0  0  0  0
  3  5  1  0  0  0  0
  4  5  1  0  0  0  0
  6  7  1  0  0  0  0
  7  8  1  0  0  0  0
  8 12  1  0  0  0  0
 10 11  1  0  0  0  0
  3 13  1  0  0  0  0
  3 14  1  0  0  0  0
  4 15  1  0  0  0  0
  4 16  1  0  0  0  0
  5 17  1  0  0  0  0
  6 18  1  0  0  0  0
  6 19  1  0  0  0  0
  6 20  1  0  0  0  0
  7 21  1  0  0  0  0
  7 22  1  0  0  0  0
  8 23  1  0  0  0  0
 11 24  1  0  0  0  0
 12 25  1  0  0  0  0
 12 26  1  0  0  0  0
M  END
> <FRED Chemgauss4 score>
-6.159089

$$$$
C36131303	P53675666
  -OEChem-05122015083D

 33 34  0     1  0  0  0  0  0999 V2000
   58.4450  158.0770   -8.3011 C   0  0  0  0  0  0  0  0  0  0  0  0
   59.8810  156.6504   -6.9823 C   0  0  0  0  0  0  0  0  0  0  0  0
   57.3337  157.6030   -7.6040 C   0  0  0  0  0  0  0  0  0  0  0  0
   58.7698  156.1763   -6.2851 C   0  0  0  0  0  0  0  0  0  0  0  0
   59.7186  157.6007   -7.9903 C   0  0  0  0  0  0  0  0  0  0  0  0
   57.4961  156.6527   -6.5959 C   0  0  0  0  0  0  0  0  0  0  0  0
   57.0324  158.9094   -2.8938 C   0  0  0  0  0  0  0  0  0  0  0  0
   57.6171  158.9898   -4.2745 C   0  0  0  0  0  0  0  0  0  0  0  0
   56.3485  158.2200   -4.0400 C   0  0  0  0  0  0  0  0  0  0  0  0
   55.5651  156.1255   -3.0104 C   0  0  0  0  0  0  0  0  0  0  0  0
   54.0738  156.1656   -3.2897 C   0  0  0  0  0  0  0  0  0  0  0  0
   60.8426  158.0797   -8.6950 N   0  0  0  0  0  0  0  0  0  0  0  0
   56.3010  156.7395   -4.1448 N   0  0  1  0  0  0  0  0  0  0  0  0
   54.9078  156.6246   -6.3339 O   0  0  0  0  0  0  0  0  0  0  0  0
   56.2156  154.6067   -5.6254 O   0  0  0  0  0  0  0  0  0  0  0  0
   53.3757  155.5450   -2.2177 O   0  0  0  0  0  0  0  0  0  0  0  0
   56.0857  156.0497   -5.7107 S   0  0  0  0  0  0  0  0  0  0  0  0
   58.3069  158.8174   -9.0850 H   0  0  0  0  0  0  0  0  0  0  0  0
   60.8693  156.2732   -6.7313 H   0  0  0  0  0  0  0  0  0  0  0  0
   56.3463  157.9810   -7.8547 H   0  0  0  0  0  0  0  0  0  0  0  0
   58.9081  155.4357   -5.5017 H   0  0  0  0  0  0  0  0  0  0  0  0
   57.5515  158.3023   -2.1624 H   0  0  0  0  0  0  0  0  0  0  0  0
   56.5667  159.8000   -2.4902 H   0  0  0  0  0  0  0  0  0  0  0  0
   57.5445  159.9342   -4.7995 H   0  0  0  0  0  0  0  0  0  0  0  0
   58.5273  158.4357   -4.4683 H   0  0  0  0  0  0  0  0  0  0  0  0
   55.4284  158.6640   -4.4028 H   0  0  0  0  0  0  0  0  0  0  0  0
   55.8134  156.6803   -2.1001 H   0  0  0  0  0  0  0  0  0  0  0  0
   55.9048  155.0909   -2.9034 H   0  0  0  0  0  0  0  0  0  0  0  0
   53.8490  155.6103   -4.2057 H   0  0  0  0  0  0  0  0  0  0  0  0
   53.7119  157.1933   -3.3974 H   0  0  0  0  0  0  0  0  0  0  0  0
   60.7084  158.7253   -9.4467 H   0  0  0  0  0  0  0  0  0  0  0  0
   61.7438  157.6955   -8.4946 H   0  0  0  0  0  0  0  0  0  0  0  0
   52.4308  155.5919   -2.4351 H   0  0  0  0  0  0  0  0  0  0  0  0
  1  3  1  0  0  0  0
  1  5  2  0  0  0  0
  2  4  2  0  0  0  0
  2  5  1  0  0  0  0
  3  6  2  0  0  0  0
  4  6  1  0  0  0  0
  5 12  1  0  0  0  0
  6 17  1  0  0  0  0
  7  8  1  0  0  0  0
  7  9  1  0  0  0  0
  8  9  1  0  0  0  0
  9 13  1  0  0  0  0
 10 11  1  0  0  0  0
 10 13  1  0  0  0  0
 11 16  1  0  0  0  0
 13 17  1  0  0  0  0
 14 17  2  0  0  0  0
 15 17  2  0  0  0  0
  1 18  1  0  0  0  0
  2 19  1  0  0  0  0
  3 20  1  0  0  0  0
  4 21  1  0  0  0  0
  7 22  1  0  0  0  0
  7 23  1  0  0  0  0
  8 24  1  0  0  0  0
  8 25  1  0  0  0  0
  9 26  1  0  0  0  0
 10 27  1  0  0  0  0
 10 28  1  0  0  0  0
 11 29  1  0  0  0  0
 11 30  1  0  0  0  0
 12 31  1  0  0  0  0
 12 32  1  0  0  0  0
 16 33  1  0  0  0  0
M  END
> <FRED Chemgauss4 score>
-6.158151

$$$$
C94262800	P147740251
  -OEChem-05122015083D

 39 40  0     1  0  0  0  0  0999 V2000
   56.2967  159.2738   -0.4442 C   0  0  0  0  0  0  0  0  0  0  0  0
   57.3979  160.1303   -0.4349 C   0  0  0  0  0  0  0  0  0  0  0  0
   55.9551  158.6823   -1.6671 C   0  0  0  0  0  0  0  0  0  0  0  0
   56.7333  158.9905   -2.7744 C   0  0  0  0  0  0  0  0  0  0  0  0
   58.0906  160.3507   -1.6213 C   0  0  0  0  0  0  0  0  0  0  0  0
   55.1133  157.5945   -3.2981 C   0  0  0  0  0  0  0  0  0  0  0  0
   57.0498  154.8103   -6.2920 C   0  0  0  0  0  0  0  0  0  0  0  0
   54.1048  154.5993   -5.6128 C   0  0  0  0  0  0  0  0  0  0  0  0
   59.5518  161.8472   -0.2851 C   0  0  0  0  0  0  0  0  0  0  0  0
   59.9868  161.5123   -2.7238 C   0  0  0  0  0  0  0  0  0  0  0  0
   56.2494  155.9458   -5.6682 C   0  0  0  0  0  0  0  0  0  0  0  0
   54.2625  156.6996   -4.1821 C   0  0  1  0  0  0  0  0  0  0  0  0
   55.0426  155.5101   -4.8040 C   0  0  1  0  0  0  0  0  0  0  0  0
   54.9498  157.8113   -2.0102 N   0  0  0  0  0  0  0  0  0  0  0  0
   57.8007  159.8041   -2.8272 N   0  0  0  0  0  0  0  0  0  0  0  0
   56.1801  158.2862   -3.8062 N   0  0  0  0  0  0  0  0  0  0  0  0
   53.1418  156.2438   -3.3858 N   0  0  0  0  0  0  0  0  0  0  0  0
   59.2003  161.2351   -1.5448 N   0  0  0  0  0  0  0  0  0  0  0  0
   55.7333  159.0787    0.4614 H   0  0  0  0  0  0  0  0  0  0  0  0
   57.6960  160.6111    0.4922 H   0  0  0  0  0  0  0  0  0  0  0  0
   57.4240  154.1459   -5.5060 H   0  0  0  0  0  0  0  0  0  0  0  0
   57.9159  155.1848   -6.8450 H   0  0  0  0  0  0  0  0  0  0  0  0
   56.4397  154.2075   -6.9695 H   0  0  0  0  0  0  0  0  0  0  0  0
   53.6565  155.1454   -6.4497 H   0  0  0  0  0  0  0  0  0  0  0  0
   54.6339  153.7301   -6.0160 H   0  0  0  0  0  0  0  0  0  0  0  0
   53.2830  154.2298   -4.9905 H   0  0  0  0  0  0  0  0  0  0  0  0
   60.4248  162.4928   -0.4117 H   0  0  0  0  0  0  0  0  0  0  0  0
   59.7870  161.0785    0.4560 H   0  0  0  0  0  0  0  0  0  0  0  0
   58.7193  162.4501    0.0875 H   0  0  0  0  0  0  0  0  0  0  0  0
   60.7940  162.2085   -2.4818 H   0  0  0  0  0  0  0  0  0  0  0  0
   59.3593  161.9574   -3.5007 H   0  0  0  0  0  0  0  0  0  0  0  0
   60.4235  160.5885   -3.1126 H   0  0  0  0  0  0  0  0  0  0  0  0
   55.8872  156.5948   -6.4759 H   0  0  0  0  0  0  0  0  0  0  0  0
   56.9276  156.5672   -5.0718 H   0  0  0  0  0  0  0  0  0  0  0  0
   53.8131  157.2912   -4.9892 H   0  0  0  0  0  0  0  0  0  0  0  0
   55.4467  154.8904   -3.9912 H   0  0  0  0  0  0  0  0  0  0  0  0
   56.5011  158.2794   -4.7653 H   0  0  0  0  0  0  0  0  0  0  0  0
   52.6462  155.4229   -3.6784 H   0  0  0  0  0  0  0  0  0  0  0  0
   52.7638  156.8596   -2.6907 H   0  0  0  0  0  0  0  0  0  0  0  0
  1  2  1  0  0  0  0
  1  3  2  0  0  0  0
  2  5  2  0  0  0  0
  3  4  1  0  0  0  0
  3 14  1  0  0  0  0
  4 15  2  0  0  0  0
  4 16  1  0  0  0  0
  5 15  1  0  0  0  0
  5 18  1  0  0  0  0
  6 12  1  0  0  0  0
  6 14  2  0  0  0  0
  6 16  1  0  0  0  0
  7 11  1  0  0  0  0
  8 13  1  0  0  0  0
  9 18  1  0  0  0  0
 10 18  1  0  0  0  0
 11 13  1  0  0  0  0
 12 13  1  0  0  0  0
 12 17  1  0  0  0  0
  1 19  1  0  0  0  0
  2 20  1  0  0  0  0
  7 21  1  0  0  0  0
  7 22  1  0  0  0  0
  7 23  1  0  0  0  0
  8 24  1  0  0  0  0
  8 25  1  0  0  0  0
  8 26  1  0  0  0  0
  9 27  1  0  0  0  0
  9 28  1  0  0  0  0
  9 29  1  0  0  0  0
 10 30  1  0  0  0  0
 10 31  1  0  0  0  0
 10 32  1  0  0  0  0
 11 33  1  0  0  0  0
 11 34  1  0  0  0  0
 12 35  1  0  0  0  0
 13 36  1  0  0  0  0
 16 37  1  0  0  0  0
 17 38  1  0  0  0  0
 17 39  1  0  0  0  0
M  END
> <FRED Chemgauss4 score>
-6.157699

$$$$
C50392648	P75365168
  -OEChem-05122015083D

 24 24  0     1  0  0  0  0  0999 V2000
   57.6824  156.4596   -6.4443 C   0  0  0  0  0  0  0  0  0  0  0  0
   54.5731  157.7340   -5.0024 C   0  0  0  0  0  0  0  0  0  0  0  0
   56.7300  153.7264   -6.0489 C   0  0  0  0  0  0  0  0  0  0  0  0
   55.7131  154.8529   -6.1351 C   0  0  0  0  0  0  0  0  0  0  0  0
   57.8714  154.0144   -7.0057 C   0  0  0  0  0  0  0  0  0  0  0  0
   56.3689  156.1652   -5.7281 C   0  0  2  0  0  0  0  0  0  0  0  0
   58.3956  155.3620   -6.8816 N   0  0  0  0  0  0  0  0  0  0  0  0
   52.8929  159.4000   -4.6677 N   0  0  0  0  0  0  0  0  0  0  0  0
   55.4806  157.2750   -5.9571 N   0  0  0  0  0  0  0  0  0  0  0  0
   53.8409  158.8147   -5.4811 N   0  0  0  0  0  0  0  0  0  0  0  0
   58.1318  157.6039   -6.5335 O   0  0  0  0  0  0  0  0  0  0  0  0
   54.4428  157.2417   -3.8819 O   0  0  0  0  0  0  0  0  0  0  0  0
   57.1097  153.6475   -5.0230 H   0  0  0  0  0  0  0  0  0  0  0  0
   56.2629  152.7679   -6.2992 H   0  0  0  0  0  0  0  0  0  0  0  0
   55.3175  154.9194   -7.1572 H   0  0  0  0  0  0  0  0  0  0  0  0
   54.8600  154.6387   -5.4803 H   0  0  0  0  0  0  0  0  0  0  0  0
   58.7001  153.3180   -6.8433 H   0  0  0  0  0  0  0  0  0  0  0  0
   57.5375  153.9019   -8.0434 H   0  0  0  0  0  0  0  0  0  0  0  0
   56.5867  156.1512   -4.6545 H   0  0  0  0  0  0  0  0  0  0  0  0
   59.3670  155.5094   -7.1377 H   0  0  0  0  0  0  0  0  0  0  0  0
   52.8833  160.3941   -4.8917 H   0  0  0  0  0  0  0  0  0  0  0  0
   53.2392  159.3303   -3.7118 H   0  0  0  0  0  0  0  0  0  0  0  0
   55.4865  157.7204   -6.8713 H   0  0  0  0  0  0  0  0  0  0  0  0
   54.0020  159.1688   -6.4181 H   0  0  0  0  0  0  0  0  0  0  0  0
  1  6  1  0  0  0  0
  1  7  1  0  0  0  0
  1 11  2  0  0  0  0
  2  9  1  0  0  0  0
  2 10  1  0  0  0  0
  2 12  2  0  0  0  0
  3  4  1  0  0  0  0
  3  5  1  0  0  0  0
  4  6  1  0  0  0  0
  5  7  1  0  0  0  0
  6  9  1  0  0  0  0
  8 10  1  0  0  0  0
  3 13  1  0  0  0  0
  3 14  1  0  0  0  0
  4 15  1  0  0  0  0
  4 16  1  0  0  0  0
  5 17  1  0  0  0  0
  5 18  1  0  0  0  0
  6 19  1  0  0  0  0
  7 20  1  0  0  0  0
  8 21  1  0  0  0  0
  8 22  1  0  0  0  0
  9 23  1  0  0  0  0
 10 24  1  0  0  0  0
M  END
> <FRED Chemgauss4 score>
-6.157249

$$$$
C41058628	P62323748
  -OEChem-05122015083D

 29 29  0     1  0  0  0  0  0999 V2000
   54.1486  158.0176   -4.7751 C   0  0  0  0  0  0  0  0  0  0  0  0
   54.3913  156.4200   -6.0964 C   0  0  0  0  0  0  0  0  0  0  0  0
   55.3944  153.7475   -5.1190 C   0  0  0  0  0  0  0  0  0  0  0  0
   56.8948  158.6029   -3.1611 C   0  0  0  0  0  0  0  0  0  0  0  0
   54.8688  155.3726   -7.0135 C   0  0  0  0  0  0  0  0  0  0  0  0
   55.9177  154.4437   -6.3653 C   0  0  0  0  0  0  0  0  0  0  0  0
   54.4940  159.2005   -3.8809 C   0  0  1  0  0  0  0  0  0  0  0  0
   55.4408  158.7823   -2.7294 C   0  0  1  0  0  0  0  0  0  0  0  0
   55.1005  157.3343   -5.4762 N   0  0  0  0  0  0  0  0  0  0  0  0
   52.8950  157.5836   -4.9224 N   0  0  0  0  0  0  0  0  0  0  0  0
   53.0781  156.5615   -5.7721 N   0  0  0  0  0  0  0  0  0  0  0  0
   55.0602  160.2935   -4.6790 N   0  0  0  0  0  0  0  0  0  0  0  0
   55.0009  157.5296   -2.1935 O   0  0  0  0  0  0  0  0  0  0  0  0
   55.0681  154.4765   -4.3704 H   0  0  0  0  0  0  0  0  0  0  0  0
   54.5469  153.0977   -5.3594 H   0  0  0  0  0  0  0  0  0  0  0  0
   56.1796  153.1300   -4.6717 H   0  0  0  0  0  0  0  0  0  0  0  0
   56.9920  157.8863   -3.9814 H   0  0  0  0  0  0  0  0  0  0  0  0
   57.5137  158.2651   -2.3225 H   0  0  0  0  0  0  0  0  0  0  0  0
   57.3133  159.5594   -3.4940 H   0  0  0  0  0  0  0  0  0  0  0  0
   54.0318  154.7439   -7.3840 H   0  0  0  0  0  0  0  0  0  0  0  0
   55.3140  155.8085   -7.9327 H   0  0  0  0  0  0  0  0  0  0  0  0
   56.2353  153.6867   -7.0927 H   0  0  0  0  0  0  0  0  0  0  0  0
   56.8100  155.0254   -6.1035 H   0  0  0  0  0  0  0  0  0  0  0  0
   53.5618  159.5711   -3.4339 H   0  0  0  0  0  0  0  0  0  0  0  0
   55.4087  159.5083   -1.9090 H   0  0  0  0  0  0  0  0  0  0  0  0
   52.2766  156.0216   -6.0770 H   0  0  0  0  0  0  0  0  0  0  0  0
   55.6051  160.9770   -4.2062 H   0  0  0  0  0  0  0  0  0  0  0  0
   54.7140  160.4191   -5.6021 H   0  0  0  0  0  0  0  0  0  0  0  0
   55.5825  157.3379   -1.4439 H   0  0  0  0  0  0  0  0  0  0  0  0
  1  7  1  0  0  0  0
  1  9  1  0  0  0  0
  1 10  2  0  0  0  0
  2  5  1  0  0  0  0
  2  9  2  0  0  0  0
  2 11  1  0  0  0  0
  3  6  1  0  0  0  0
  4  8  1  0  0  0  0
  5  6  1  0  0  0  0
  7  8  1  0  0  0  0
  7 12  1  0  0  0  0
  8 13  1  0  0  0  0
 10 11  1  0  0  0  0
  3 14  1  0  0  0  0
  3 15  1  0  0  0  0
  3 16  1  0  0  0  0
  4 17  1  0  0  0  0
  4 18  1  0  0  0  0
  4 19  1  0  0  0  0
  5 20  1  0  0  0  0
  5 21  1  0  0  0  0
  6 22  1  0  0  0  0
  6 23  1  0  0  0  0
  7 24  1  0  0  0  0
  8 25  1  0  0  0  0
 11 26  1  0  0  0  0
 12 27  1  0  0  0  0
 12 28  1  0  0  0  0
 13 29  1  0  0  0  0
M  END
> <FRED Chemgauss4 score>
-6.153029

$$$$
C03830888	P56794641
  -OEChem-05122015083D

 25 25  0     1  0  0  0  0  0999 V2000
   53.1560  155.3338   -4.5245 C   0  0  1  0  0  0  0  0  0  0  0  0
   53.8083  155.6690   -5.8702 C   0  0  2  0  0  0  0  0  0  0  0  0
   53.7308  157.1657   -6.1930 C   0  0  2  0  0  0  0  0  0  0  0  0
   54.2022  158.0289   -5.0138 C   0  0  2  0  0  0  0  0  0  0  0  0
   53.7421  156.2473   -3.4409 C   0  0  1  0  0  0  0  0  0  0  0  0
   55.7218  158.0679   -4.8690 C   0  0  0  0  0  0  0  0  0  0  0  0
   51.7130  155.4560   -4.5825 N   0  0  0  0  0  0  0  0  0  0  0  0
   53.5759  157.6239   -3.7869 O   0  0  0  0  0  0  0  0  0  0  0  0
   53.2305  154.8886   -6.9102 O   0  0  0  0  0  0  0  0  0  0  0  0
   52.3826  157.5286   -6.5057 O   0  0  0  0  0  0  0  0  0  0  0  0
   53.1060  155.9590   -2.1972 O   0  0  0  0  0  0  0  0  0  0  0  0
   56.2742  158.5956   -6.0610 O   0  0  0  0  0  0  0  0  0  0  0  0
   53.4200  154.3133   -4.2772 H   0  0  0  0  0  0  0  0  0  0  0  0
   54.8958  155.3584   -5.8445 H   0  0  0  0  0  0  0  0  0  0  0  0
   54.3462  157.3742   -7.0698 H   0  0  0  0  0  0  0  0  0  0  0  0
   53.8870  159.1024   -5.2148 H   0  0  0  0  0  0  0  0  0  0  0  0
   54.7979  156.0521   -3.3274 H   0  0  0  0  0  0  0  0  0  0  0  0
   56.1058  157.0606   -4.7087 H   0  0  0  0  0  0  0  0  0  0  0  0
   55.9991  158.7057   -4.0299 H   0  0  0  0  0  0  0  0  0  0  0  0
   51.2213  155.5972   -3.7279 H   0  0  0  0  0  0  0  0  0  0  0  0
   51.2558  155.1942   -5.4279 H   0  0  0  0  0  0  0  0  0  0  0  0
   53.3895  153.9622   -6.6761 H   0  0  0  0  0  0  0  0  0  0  0  0
   52.3875  158.4793   -6.7012 H   0  0  0  0  0  0  0  0  0  0  0  0
   53.5013  156.5535   -1.5410 H   0  0  0  0  0  0  0  0  0  0  0  0
   57.2398  158.6109   -5.9461 H   0  0  0  0  0  0  0  0  0  0  0  0
  1  2  1  0  0  0  0
  1  5  1  0  0  0  0
  1  7  1  0  0  0  0
  2  3  1  0  0  0  0
  2  9  1  0  0  0  0
  3  4  1  0  0  0  0
  3 10  1  0  0  0  0
  4  6  1  0  0  0  0
  4  8  1  0  0  0  0
  5  8  1  0  0  0  0
  5 11  1  0  0  0  0
  6 12  1  0  0  0  0
  1 13  1  0  0  0  0
  2 14  1  0  0  0  0
  3 15  1  0  0  0  0
  4 16  1  0  0  0  0
  5 17  1  0  0  0  0
  6 18  1  0  0  0  0
  6 19  1  0  0  0  0
  7 20  1  0  0  0  0
  7 21  1  0  0  0  0
  9 22  1  0  0  0  0
 10 23  1  0  0  0  0
 11 24  1  0  0  0  0
 12 25  1  0  0  0  0
M  END
> <FRED Chemgauss4 score>
-6.150352

$$$$
C70125679	P108093639
  -OEChem-05122015083D

 20 20  0     0  0  0  0  0  0999 V2000
   53.5363  156.5102   -3.3973 C   0  0  0  0  0  0  0  0  0  0  0  0
   54.3424  156.2744   -4.4795 C   0  0  0  0  0  0  0  0  0  0  0  0
   54.3237  157.0498   -5.7467 C   0  0  0  0  0  0  0  0  0  0  0  0
   52.9169  158.3586   -7.3164 C   0  0  0  0  0  0  0  0  0  0  0  0
   51.8305  159.4000   -7.1254 C   0  0  0  0  0  0  0  0  0  0  0  0
   54.8120  154.8513   -2.9525 N   0  5  0  0  0  0  0  0  0  0  0  0
   53.8185  155.6240   -2.4266 N   0  0  0  0  0  0  0  0  0  0  0  0
   55.1518  155.2336   -4.2173 N   0  0  0  0  0  0  0  0  0  0  0  0
   53.1061  157.5810   -6.0715 N   0  0  0  0  0  0  0  0  0  0  0  0
   50.5406  158.7297   -6.8280 N   0  3  0  0  0  0  0  0  0  0  0  0
   55.3546  157.1445   -6.4074 O   0  0  0  0  0  0  0  0  0  0  0  0
   52.7773  157.2736   -3.2877 H   0  0  0  0  0  0  0  0  0  0  0  0
   52.6688  157.6688   -8.1300 H   0  0  0  0  0  0  0  0  0  0  0  0
   53.8656  158.8468   -7.5616 H   0  0  0  0  0  0  0  0  0  0  0  0
   51.6760  159.9855   -8.0361 H   0  0  0  0  0  0  0  0  0  0  0  0
   52.0392  160.0715   -6.2871 H   0  0  0  0  0  0  0  0  0  0  0  0
   52.2772  157.4255   -5.5352 H   0  0  0  0  0  0  0  0  0  0  0  0
   49.7485  159.3291   -7.0828 H   0  0  0  0  0  0  0  0  0  0  0  0
   50.4633  158.5114   -5.8288 H   0  0  0  0  0  0  0  0  0  0  0  0
   50.4544  157.8519   -7.3512 H   0  0  0  0  0  0  0  0  0  0  0  0
  1  2  1  0  0  0  0
  1  7  2  0  0  0  0
  2  3  1  0  0  0  0
  2  8  2  0  0  0  0
  3  9  1  0  0  0  0
  3 11  2  0  0  0  0
  4  5  1  0  0  0  0
  4  9  1  0  0  0  0
  5 10  1  0  0  0  0
  6  7  1  0  0  0  0
  6  8  1  0  0  0  0
  1 12  1  0  0  0  0
  4 13  1  0  0  0  0
  4 14  1  0  0  0  0
  5 15  1  0  0  0  0
  5 16  1  0  0  0  0
  9 17  1  0  0  0  0
 10 18  1  0  0  0  0
 10 19  1  0  0  0  0
 10 20  1  0  0  0  0
M  CHG  2   6  -1  10   1
M  END
> <FRED Chemgauss4 score>
-6.140223

$$$$
C85247316	P133396585
  -OEChem-05122015083D

 26 26  0     1  0  0  0  0  0999 V2000
   57.4729  155.5159   -6.4429 C   0  0  0  0  0  0  0  0  0  0  0  0
   58.9637  155.8125   -6.4895 C   0  0  0  0  0  0  0  0  0  0  0  0
   57.3354  157.9477   -6.3551 C   0  0  0  0  0  0  0  0  0  0  0  0
   56.8323  156.6750   -5.6841 C   0  0  1  0  0  0  0  0  0  0  0  0
   54.9068  155.3557   -5.1294 C   0  0  0  0  0  0  0  0  0  0  0  0
   53.2079  156.1809   -3.4138 C   0  0  0  0  0  0  0  0  0  0  0  0
   53.4330  155.4526   -4.7353 C   0  0  1  0  0  0  0  0  0  0  0  0
   55.3782  156.5988   -5.7233 N   0  0  0  0  0  0  0  0  0  0  0  0
   53.4430  155.2728   -2.3419 O   0  0  0  0  0  0  0  0  0  0  0  0
   52.7060  156.1379   -5.7557 O   0  0  0  0  0  0  0  0  0  0  0  0
   59.0795  157.6077   -6.7337 S   0  0  0  0  0  0  0  0  0  0  0  0
   57.0730  155.4434   -7.4635 H   0  0  0  0  0  0  0  0  0  0  0  0
   57.2835  154.5541   -5.9533 H   0  0  0  0  0  0  0  0  0  0  0  0
   59.4463  155.5541   -5.5419 H   0  0  0  0  0  0  0  0  0  0  0  0
   59.4634  155.2717   -7.2978 H   0  0  0  0  0  0  0  0  0  0  0  0
   56.8152  158.1522   -7.2972 H   0  0  0  0  0  0  0  0  0  0  0  0
   57.2385  158.8230   -5.7062 H   0  0  0  0  0  0  0  0  0  0  0  0
   57.1502  156.6529   -4.6377 H   0  0  0  0  0  0  0  0  0  0  0  0
   55.5176  155.1460   -4.2448 H   0  0  0  0  0  0  0  0  0  0  0  0
   55.0560  154.5376   -5.8418 H   0  0  0  0  0  0  0  0  0  0  0  0
   52.1774  156.5406   -3.3335 H   0  0  0  0  0  0  0  0  0  0  0  0
   53.9011  157.0196   -3.2941 H   0  0  0  0  0  0  0  0  0  0  0  0
   53.0082  154.4438   -4.6711 H   0  0  0  0  0  0  0  0  0  0  0  0
   54.9882  157.3869   -5.2078 H   0  0  0  0  0  0  0  0  0  0  0  0
   53.2914  155.7674   -1.5214 H   0  0  0  0  0  0  0  0  0  0  0  0
   52.8136  155.6163   -6.5651 H   0  0  0  0  0  0  0  0  0  0  0  0
  1  2  1  0  0  0  0
  1  4  1  0  0  0  0
  2 11  1  0  0  0  0
  3  4  1  0  0  0  0
  3 11  1  0  0  0  0
  4  8  1  0  0  0  0
  5  7  1  0  0  0  0
  5  8  1  0  0  0  0
  6  7  1  0  0  0  0
  6  9  1  0  0  0  0
  7 10  1  0  0  0  0
  1 12  1  0  0  0  0
  1 13  1  0  0  0  0
  2 14  1  0  0  0  0
  2 15  1  0  0  0  0
  3 16  1  0  0  0  0
  3 17  1  0  0  0  0
  4 18  1  0  0  0  0
  5 19  1  0  0  0  0
  5 20  1  0  0  0  0
  6 21  1  0  0  0  0
  6 22  1  0  0  0  0
  7 23  1  0  0  0  0
  8 24  1  0  0  0  0
  9 25  1  0  0  0  0
 10 26  1  0  0  0  0
M  END
> <FRED Chemgauss4 score>
-6.136125

$$$$
C82915348	P129630587
  -OEChem-05122015083D

 36 36  0     1  0  0  0  0  0999 V2000
   57.1396  154.3686   -7.0181 C   0  0  0  0  0  0  0  0  0  0  0  0
   56.7384  156.6738   -6.3132 C   0  0  0  0  0  0  0  0  0  0  0  0
   58.5328  154.7074   -6.4780 C   0  0  1  0  0  0  0  0  0  0  0  0
   57.9552  156.9281   -7.2083 C   0  0  1  0  0  0  0  0  0  0  0  0
   59.5564  153.6560   -6.8855 C   0  0  0  0  0  0  0  0  0  0  0  0
   58.5443  158.3112   -6.9649 C   0  0  0  0  0  0  0  0  0  0  0  0
   54.0104  155.7442   -5.4603 C   0  0  0  0  0  0  0  0  0  0  0  0
   55.2908  154.9080   -5.5319 C   0  0  0  0  0  0  0  0  0  0  0  0
   53.5585  155.9334   -2.9867 C   0  0  0  0  0  0  0  0  0  0  0  0
   53.0987  155.3050   -4.3060 C   0  0  1  0  0  0  0  0  0  0  0  0
   56.1354  155.3701   -6.6297 N   0  0  0  0  0  0  0  0  0  0  0  0
   52.6963  155.5224   -1.8815 N   0  0  0  0  0  0  0  0  0  0  0  0
   58.9948  155.9707   -6.9708 O   0  0  0  0  0  0  0  0  0  0  0  0
   51.7692  155.7306   -4.5995 O   0  0  0  0  0  0  0  0  0  0  0  0
   57.1763  154.2833   -8.1227 H   0  0  0  0  0  0  0  0  0  0  0  0
   56.8405  153.3734   -6.6381 H   0  0  0  0  0  0  0  0  0  0  0  0
   57.0457  156.7067   -5.2636 H   0  0  0  0  0  0  0  0  0  0  0  0
   56.0044  157.4716   -6.4743 H   0  0  0  0  0  0  0  0  0  0  0  0
   58.5164  154.7413   -5.3729 H   0  0  0  0  0  0  0  0  0  0  0  0
   57.6811  156.8593   -8.2344 H   0  0  0  0  0  0  0  0  0  0  0  0
   59.6072  153.5872   -7.9721 H   0  0  0  0  0  0  0  0  0  0  0  0
   59.2726  152.6841   -6.4822 H   0  0  0  0  0  0  0  0  0  0  0  0
   60.5401  153.9254   -6.5013 H   0  0  0  0  0  0  0  0  0  0  0  0
   58.8341  158.4094   -5.9204 H   0  0  0  0  0  0  0  0  0  0  0  0
   57.8051  159.0735   -7.2038 H   0  0  0  0  0  0  0  0  0  0  0  0
   59.4211  158.4538   -7.5940 H   0  0  0  0  0  0  0  0  0  0  0  0
   53.4685  155.6455   -6.4102 H   0  0  0  0  0  0  0  0  0  0  0  0
   54.2714  156.8031   -5.3375 H   0  0  0  0  0  0  0  0  0  0  0  0
   55.0531  153.8497   -5.6838 H   0  0  0  0  0  0  0  0  0  0  0  0
   55.8484  154.9941   -4.5931 H   0  0  0  0  0  0  0  0  0  0  0  0
   54.5837  155.6237   -2.7578 H   0  0  0  0  0  0  0  0  0  0  0  0
   53.5382  157.0268   -3.0569 H   0  0  0  0  0  0  0  0  0  0  0  0
   53.1021  154.2105   -4.2346 H   0  0  0  0  0  0  0  0  0  0  0  0
   52.6437  156.1159   -1.0824 H   0  0  0  0  0  0  0  0  0  0  0  0
   52.3581  154.5848   -1.8748 H   0  0  0  0  0  0  0  0  0  0  0  0
   51.8010  156.6962   -4.6794 H   0  0  0  0  0  0  0  0  0  0  0  0
  1  3  1  0  0  0  0
  1 11  1  0  0  0  0
  2  4  1  0  0  0  0
  2 11  1  0  0  0  0
  3  5  1  0  0  0  0
  3 13  1  0  0  0  0
  4  6  1  0  0  0  0
  4 13  1  0  0  0  0
  7  8  1  0  0  0  0
  7 10  1  0  0  0  0
  8 11  1  0  0  0  0
  9 10  1  0  0  0  0
  9 12  1  0  0  0  0
 10 14  1  0  0  0  0
  1 15  1  0  0  0  0
  1 16  1  0  0  0  0
  2 17  1  0  0  0  0
  2 18  1  0  0  0  0
  3 19  1  0  0  0  0
  4 20  1  0  0  0  0
  5 21  1  0  0  0  0
  5 22  1  0  0  0  0
  5 23  1  0  0  0  0
  6 24  1  0  0  0  0
  6 25  1  0  0  0  0
  6 26  1  0  0  0  0
  7 27  1  0  0  0  0
  7 28  1  0  0  0  0
  8 29  1  0  0  0  0
  8 30  1  0  0  0  0
  9 31  1  0  0  0  0
  9 32  1  0  0  0  0
 10 33  1  0  0  0  0
 12 34  1  0  0  0  0
 12 35  1  0  0  0  0
 14 36  1  0  0  0  0
M  END
> <FRED Chemgauss4 score>
-6.135916

$$$$
C71025116	P109616447
  -OEChem-05122015083D

 35 35  0     1  0  0  0  0  0999 V2000
   57.2012  155.4778   -6.1104 C   0  0  0  0  0  0  0  0  0  0  0  0
   57.0829  154.3065   -6.8584 C   0  0  0  0  0  0  0  0  0  0  0  0
   54.7400  154.1757   -6.2834 C   0  0  0  0  0  0  0  0  0  0  0  0
   54.8583  155.3471   -5.5352 C   0  0  0  0  0  0  0  0  0  0  0  0
   56.0889  155.9981   -5.4487 C   0  0  0  0  0  0  0  0  0  0  0  0
   55.8524  153.6555   -6.9449 C   0  0  0  0  0  0  0  0  0  0  0  0
   53.0682  154.9054   -3.8053 C   0  0  0  0  0  0  0  0  0  0  0  0
   55.9480  158.1954   -1.1000 C   0  0  0  0  0  0  0  0  0  0  0  0
   56.0094  158.4761   -5.3335 C   0  0  0  0  0  0  0  0  0  0  0  0
   56.5689  157.1386   -3.2972 C   0  0  0  0  0  0  0  0  0  0  0  0
   53.6506  155.8816   -4.8366 C   0  0  2  0  0  0  0  0  0  0  0  0
   55.4483  157.7682   -2.4735 C   0  0  1  0  0  0  0  0  0  0  0  0
   52.6153  156.2847   -5.7717 N   0  0  0  0  0  0  0  0  0  0  0  0
   56.2264  157.1749   -4.7011 N   0  0  3  0  0  0  0  0  0  0  0  0
   54.4117  156.8035   -2.3020 O   0  0  0  0  0  0  0  0  0  0  0  0
   55.7387  152.5307   -7.6636 F   0  0  0  0  0  0  0  0  0  0  0  0
   58.1655  155.9761   -6.0497 H   0  0  0  0  0  0  0  0  0  0  0  0
   57.9487  153.9016   -7.3741 H   0  0  0  0  0  0  0  0  0  0  0  0
   53.7860  153.6607   -6.3573 H   0  0  0  0  0  0  0  0  0  0  0  0
   52.7904  153.9586   -4.2813 H   0  0  0  0  0  0  0  0  0  0  0  0
   53.7934  154.6872   -3.0133 H   0  0  0  0  0  0  0  0  0  0  0  0
   52.1749  155.3144   -3.3199 H   0  0  0  0  0  0  0  0  0  0  0  0
   56.3783  157.3511   -0.5528 H   0  0  0  0  0  0  0  0  0  0  0  0
   56.7052  158.9827   -1.1856 H   0  0  0  0  0  0  0  0  0  0  0  0
   55.1273  158.6119   -0.5059 H   0  0  0  0  0  0  0  0  0  0  0  0
   56.1585  159.2774   -4.6051 H   0  0  0  0  0  0  0  0  0  0  0  0
   54.9903  158.5410   -5.7245 H   0  0  0  0  0  0  0  0  0  0  0  0
   56.7114  158.6165   -6.1599 H   0  0  0  0  0  0  0  0  0  0  0  0
   57.5094  157.6812   -3.1532 H   0  0  0  0  0  0  0  0  0  0  0  0
   56.7257  156.0956   -3.0037 H   0  0  0  0  0  0  0  0  0  0  0  0
   53.9064  156.8065   -4.2919 H   0  0  0  0  0  0  0  0  0  0  0  0
   55.0232  158.6312   -2.9988 H   0  0  0  0  0  0  0  0  0  0  0  0
   52.8913  156.6964   -6.6411 H   0  0  0  0  0  0  0  0  0  0  0  0
   51.6698  156.3304   -5.4462 H   0  0  0  0  0  0  0  0  0  0  0  0
   53.7118  157.2395   -1.7923 H   0  0  0  0  0  0  0  0  0  0  0  0
  1  2  2  0  0  0  0
  1  5  1  0  0  0  0
  2  6  1  0  0  0  0
  3  4  1  0  0  0  0
  3  6  2  0  0  0  0
  4  5  2  0  0  0  0
  4 11  1  0  0  0  0
  5 14  1  0  0  0  0
  6 16  1  0  0  0  0
  7 11  1  0  0  0  0
  8 12  1  0  0  0  0
  9 14  1  0  0  0  0
 10 12  1  0  0  0  0
 10 14  1  0  0  0  0
 11 13  1  0  0  0  0
 12 15  1  0  0  0  0
  1 17  1  0  0  0  0
  2 18  1  0  0  0  0
  3 19  1  0  0  0  0
  7 20  1  0  0  0  0
  7 21  1  0  0  0  0
  7 22  1  0  0  0  0
  8 23  1  0  0  0  0
  8 24  1  0  0  0  0
  8 25  1  0  0  0  0
  9 26  1  0  0  0  0
  9 27  1  0  0  0  0
  9 28  1  0  0  0  0
 10 29  1  0  0  0  0
 10 30  1  0  0  0  0
 11 31  1  0  0  0  0
 12 32  1  0  0  0  0
 13 33  1  0  0  0  0
 13 34  1  0  0  0  0
 15 35  1  0  0  0  0
M  END
> <FRED Chemgauss4 score>
-6.134370

$$$$
C01529270	P05158732
  -OEChem-05122015083D

 24 24  0     1  0  0  0  0  0999 V2000
   54.8382  154.8537   -5.4399 C   0  0  1  0  0  0  0  0  0  0  0  0
   53.6321  155.2520   -4.6130 C   0  0  1  0  0  0  0  0  0  0  0  0
   55.7055  156.1121   -5.4366 C   0  0  1  0  0  0  0  0  0  0  0  0
   54.2045  156.2791   -3.6336 C   0  0  1  0  0  0  0  0  0  0  0  0
   55.5291  156.9643   -6.6862 C   0  0  0  0  0  0  0  0  0  0  0  0
   54.7494  155.6469   -2.3534 C   0  0  0  0  0  0  0  0  0  0  0  0
   55.3071  156.9101   -4.3043 O   0  0  0  0  0  0  0  0  0  0  0  0
   55.5474  153.8028   -4.7926 O   0  0  0  0  0  0  0  0  0  0  0  0
   52.6822  155.8843   -5.4683 O   0  0  0  0  0  0  0  0  0  0  0  0
   53.2217  157.2290   -3.2326 O   0  0  0  0  0  0  0  0  0  0  0  0
   56.3629  158.1065   -6.5823 O   0  0  0  0  0  0  0  0  0  0  0  0
   53.6935  154.9674   -1.6960 O   0  0  0  0  0  0  0  0  0  0  0  0
   54.5631  154.5147   -6.4350 H   0  0  0  0  0  0  0  0  0  0  0  0
   53.1742  154.4102   -4.1429 H   0  0  0  0  0  0  0  0  0  0  0  0
   56.7626  155.8726   -5.3175 H   0  0  0  0  0  0  0  0  0  0  0  0
   54.4904  157.2892   -6.7795 H   0  0  0  0  0  0  0  0  0  0  0  0
   55.8125  156.3964   -7.5752 H   0  0  0  0  0  0  0  0  0  0  0  0
   55.1446  156.4191   -1.6907 H   0  0  0  0  0  0  0  0  0  0  0  0
   55.5396  154.9328   -2.5926 H   0  0  0  0  0  0  0  0  0  0  0  0
   56.3084  153.5819   -5.3565 H   0  0  0  0  0  0  0  0  0  0  0  0
   52.4371  155.2383   -6.1535 H   0  0  0  0  0  0  0  0  0  0  0  0
   53.6628  157.8359   -2.6195 H   0  0  0  0  0  0  0  0  0  0  0  0
   56.2295  158.6292   -7.3907 H   0  0  0  0  0  0  0  0  0  0  0  0
   54.0668  154.5763   -0.8882 H   0  0  0  0  0  0  0  0  0  0  0  0
  1  2  1  0  0  0  0
  1  3  1  0  0  0  0
  1  8  1  0  0  0  0
  2  4  1  0  0  0  0
  2  9  1  0  0  0  0
  3  5  1  0  0  0  0
  3  7  1  0  0  0  0
  4  6  1  0  0  0  0
  4  7  1  0  0  0  0
  4 10  1  0  0  0  0
  5 11  1  0  0  0  0
  6 12  1  0  0  0  0
  1 13  1  0  0  0  0
  2 14  1  0  0  0  0
  3 15  1  0  0  0  0
  5 16  1  0  0  0  0
  5 17  1  0  0  0  0
  6 18  1  0  0  0  0
  6 19  1  0  0  0  0
  8 20  1  0  0  0  0
  9 21  1  0  0  0  0
 10 22  1  0  0  0  0
 11 23  1  0  0  0  0
 12 24  1  0  0  0  0
M  END
> <FRED Chemgauss4 score>
-6.123049

$$$$
C01530418	P120022890
  -OEChem-05122015083D

 20 20  0     1  0  0  0  0  0999 V2000
   56.7836  155.6901   -5.9334 C   0  0  0  0  0  0  0  0  0  0  0  0
   54.0933  155.5446   -3.2413 C   0  0  0  0  0  0  0  0  0  0  0  0
   56.1448  156.9411   -6.4731 C   0  0  1  0  0  0  0  0  0  0  0  0
   54.7920  156.9104   -5.7994 C   0  0  2  0  0  0  0  0  0  0  0  0
   54.5190  155.4213   -5.7227 C   0  0  2  0  0  0  0  0  0  0  0  0
   53.5938  155.0471   -4.5778 C   0  0  2  0  0  0  0  0  0  0  0  0
   57.9821  155.4652   -5.8722 O   0  0  0  0  0  0  0  0  0  0  0  0
   53.5011  156.3523   -2.5329 O   0  0  0  0  0  0  0  0  0  0  0  0
   55.8072  154.8247   -5.5169 O   0  0  0  0  0  0  0  0  0  0  0  0
   56.8645  158.0943   -6.1137 O   0  0  0  0  0  0  0  0  0  0  0  0
   53.8021  157.5531   -6.5814 O   0  0  0  0  0  0  0  0  0  0  0  0
   52.3293  155.6473   -4.7993 O   0  0  0  0  0  0  0  0  0  0  0  0
   55.0833  155.1609   -2.9381 H   0  0  0  0  0  0  0  0  0  0  0  0
   56.0663  156.8813   -7.5638 H   0  0  0  0  0  0  0  0  0  0  0  0
   54.8277  157.3850   -4.8108 H   0  0  0  0  0  0  0  0  0  0  0  0
   54.1024  155.0331   -6.6612 H   0  0  0  0  0  0  0  0  0  0  0  0
   53.4714  153.9613   -4.5270 H   0  0  0  0  0  0  0  0  0  0  0  0
   57.7636  158.0084   -6.4820 H   0  0  0  0  0  0  0  0  0  0  0  0
   53.7553  157.0785   -7.4288 H   0  0  0  0  0  0  0  0  0  0  0  0
   51.7500  155.3670   -4.0707 H   0  0  0  0  0  0  0  0  0  0  0  0
  1  3  1  0  0  0  0
  1  7  2  0  0  0  0
  1  9  1  0  0  0  0
  2  6  1  0  0  0  0
  2  8  2  0  0  0  0
  3  4  1  0  0  0  0
  3 10  1  0  0  0  0
  4  5  1  0  0  0  0
  4 11  1  0  0  0  0
  5  6  1  0  0  0  0
  5  9  1  0  0  0  0
  6 12  1  0  0  0  0
  2 13  1  0  0  0  0
  3 14  1  0  0  0  0
  4 15  1  0  0  0  0
  5 16  1  0  0  0  0
  6 17  1  0  0  0  0
 10 18  1  0  0  0  0
 11 19  1  0  0  0  0
 12 20  1  0  0  0  0
M  END
> <FRED Chemgauss4 score>
-6.117596

$$$$
C54009804	P81226696
  -OEChem-05122015083D

 14 14  0     0  0  0  0  0  0999 V2000
   54.5046  157.5739   -5.5491 C   0  0  0  0  0  0  0  0  0  0  0  0
   53.5766  156.7626   -6.0661 C   0  0  0  0  0  0  0  0  0  0  0  0
   53.0470  155.7889   -3.9606 C   0  0  0  0  0  0  0  0  0  0  0  0
   53.9260  156.5047   -3.2265 C   0  0  0  0  0  0  0  0  0  0  0  0
   54.7415  157.4941   -4.0727 C   0  0  0  0  0  0  0  0  0  0  0  0
   52.8569  155.8876   -5.3106 N   0  0  0  0  0  0  0  0  0  0  0  0
   55.6335  158.2692   -3.5582 N   0  3  0  0  0  0  0  0  0  0  0  0
   54.1628  156.4760   -1.9873 O   0  5  0  0  0  0  0  0  0  0  0  0
   55.0731  158.2646   -6.1598 H   0  0  0  0  0  0  0  0  0  0  0  0
   53.3377  156.7471   -7.1219 H   0  0  0  0  0  0  0  0  0  0  0  0
   52.3962  155.0461   -3.5098 H   0  0  0  0  0  0  0  0  0  0  0  0
   52.1669  155.2971   -5.7568 H   0  0  0  0  0  0  0  0  0  0  0  0
   56.1744  158.9283   -4.1322 H   0  0  0  0  0  0  0  0  0  0  0  0
   55.8422  158.2616   -2.5517 H   0  0  0  0  0  0  0  0  0  0  0  0
  1  2  2  0  0  0  0
  1  5  1  0  0  0  0
  2  6  1  0  0  0  0
  3  4  2  0  0  0  0
  3  6  1  0  0  0  0
  4  5  1  0  0  0  0
  4  8  1  0  0  0  0
  5  7  2  0  0  0  0
  1  9  1  0  0  0  0
  2 10  1  0  0  0  0
  3 11  1  0  0  0  0
  6 12  1  0  0  0  0
  7 13  1  0  0  0  0
  7 14  1  0  0  0  0
M  CHG  2   7   1   8  -1
M  END
> <FRED Chemgauss4 score>
-6.110939

$$$$
C31369269	P118184604
  -OEChem-05122015083D

 49 51  0     1  0  0  0  0  0999 V2000
   61.6794  162.8958   -6.1436 C   0  0  0  0  0  0  0  0  0  0  0  0
   62.5241  163.7487   -5.4647 C   0  0  0  0  0  0  0  0  0  0  0  0
   60.7674  162.2337   -5.2682 C   0  0  0  0  0  0  0  0  0  0  0  0
   60.9607  162.6243   -3.9589 C   0  0  0  0  0  0  0  0  0  0  0  0
   54.9254  156.4600   -5.8897 C   0  0  0  0  0  0  0  0  0  0  0  0
   54.8825  156.9149   -7.1615 C   0  0  0  0  0  0  0  0  0  0  0  0
   53.7946  156.8297   -4.9806 C   0  0  0  0  0  0  0  0  0  0  0  0
   52.8871  157.9901   -6.8883 C   0  0  0  0  0  0  0  0  0  0  0  0
   57.2332  156.4168   -5.0707 C   0  0  0  0  0  0  0  0  0  0  0  0
   59.6954  161.2593   -5.6543 C   0  0  0  0  0  0  0  0  0  0  0  0
   60.1755  162.0847   -2.8093 C   0  0  0  0  0  0  0  0  0  0  0  0
   58.9376  161.3266   -3.3287 C   0  0  0  0  0  0  0  0  0  0  0  0
   55.9766  156.6444   -8.1614 C   0  0  0  0  0  0  0  0  0  0  0  0
   51.7430  158.8264   -7.3831 C   0  0  0  0  0  0  0  0  0  0  0  0
   56.8732  160.4202   -4.8678 C   0  0  0  0  0  0  0  0  0  0  0  0
   55.9777  155.5955   -5.2914 C   0  0  0  0  0  0  0  0  0  0  0  0
   58.0805  158.4162   -3.8560 C   0  0  0  0  0  0  0  0  0  0  0  0
   58.1570  159.5973   -4.8260 C   0  0  2  0  0  0  0  0  0  0  0  0
   53.8624  157.6848   -7.6821 N   0  0  0  0  0  0  0  0  0  0  0  0
   52.8153  157.5972   -5.5742 N   0  0  0  0  0  0  0  0  0  0  0  0
   59.2839  160.4625   -4.4766 N   0  0  1  0  0  0  0  0  0  0  0  0
   57.0313  157.4914   -4.2198 N   0  0  0  0  0  0  0  0  0  0  0  0
   53.7612  156.4722   -3.8065 O   0  0  0  0  0  0  0  0  0  0  0  0
   58.3026  156.1279   -5.6053 O   0  0  0  0  0  0  0  0  0  0  0  0
   62.2166  163.7531   -3.7786 S   0  0  0  0  0  0  0  0  0  0  0  0
   61.7144  162.7578   -7.2167 H   0  0  0  0  0  0  0  0  0  0  0  0
   63.3056  164.3703   -5.8783 H   0  0  0  0  0  0  0  0  0  0  0  0
   58.8456  161.8150   -6.0716 H   0  0  0  0  0  0  0  0  0  0  0  0
   60.0807  160.5892   -6.4319 H   0  0  0  0  0  0  0  0  0  0  0  0
   60.8104  161.3978   -2.2354 H   0  0  0  0  0  0  0  0  0  0  0  0
   59.8565  162.8889   -2.1368 H   0  0  0  0  0  0  0  0  0  0  0  0
   58.5404  160.7249   -2.5019 H   0  0  0  0  0  0  0  0  0  0  0  0
   58.1535  162.0415   -3.6137 H   0  0  0  0  0  0  0  0  0  0  0  0
   55.7568  155.7216   -8.6889 H   0  0  0  0  0  0  0  0  0  0  0  0
   56.9238  156.5550   -7.6383 H   0  0  0  0  0  0  0  0  0  0  0  0
   56.0281  157.4696   -8.8651 H   0  0  0  0  0  0  0  0  0  0  0  0
   50.9694  158.1782   -7.7873 H   0  0  0  0  0  0  0  0  0  0  0  0
   52.0967  159.5013   -8.1591 H   0  0  0  0  0  0  0  0  0  0  0  0
   51.3381  159.4094   -6.5592 H   0  0  0  0  0  0  0  0  0  0  0  0
   56.6310  160.8506   -3.8900 H   0  0  0  0  0  0  0  0  0  0  0  0
   56.9740  161.2538   -5.5718 H   0  0  0  0  0  0  0  0  0  0  0  0
   56.0268  159.8057   -5.1915 H   0  0  0  0  0  0  0  0  0  0  0  0
   56.2281  154.7745   -5.9707 H   0  0  0  0  0  0  0  0  0  0  0  0
   55.6069  155.1606   -4.3587 H   0  0  0  0  0  0  0  0  0  0  0  0
   57.8908  158.7771   -2.8388 H   0  0  0  0  0  0  0  0  0  0  0  0
   59.0364  157.8815   -3.8391 H   0  0  0  0  0  0  0  0  0  0  0  0
   58.3376  159.1991   -5.8314 H   0  0  0  0  0  0  0  0  0  0  0  0
   52.0128  157.8821   -5.0204 H   0  0  0  0  0  0  0  0  0  0  0  0
   56.1032  157.6359   -3.8341 H   0  0  0  0  0  0  0  0  0  0  0  0
  1  2  2  0  0  0  0
  1  3  1  0  0  0  0
  2 25  1  0  0  0  0
  3  4  2  0  0  0  0
  3 10  1  0  0  0  0
  4 11  1  0  0  0  0
  4 25  1  0  0  0  0
  5  6  2  0  0  0  0
  5  7  1  0  0  0  0
  5 16  1  0  0  0  0
  6 13  1  0  0  0  0
  6 19  1  0  0  0  0
  7 20  1  0  0  0  0
  7 23  2  0  0  0  0
  8 14  1  0  0  0  0
  8 19  2  0  0  0  0
  8 20  1  0  0  0  0
  9 16  1  0  0  0  0
  9 22  1  0  0  0  0
  9 24  2  0  0  0  0
 10 21  1  0  0  0  0
 11 12  1  0  0  0  0
 12 21  1  0  0  0  0
 15 18  1  0  0  0  0
 17 18  1  0  0  0  0
 17 22  1  0  0  0  0
 18 21  1  0  0  0  0
  1 26  1  0  0  0  0
  2 27  1  0  0  0  0
 10 28  1  0  0  0  0
 10 29  1  0  0  0  0
 11 30  1  0  0  0  0
 11 31  1  0  0  0  0
 12 32  1  0  0  0  0
 12 33  1  0  0  0  0
 13 34  1  0  0  0  0
 13 35  1  0  0  0  0
 13 36  1  0  0  0  0
 14 37  1  0  0  0  0
 14 38  1  0  0  0  0
 14 39  1  0  0  0  0
 15 40  1  0  0  0  0
 15 41  1  0  0  0  0
 15 42  1  0  0  0  0
 16 43  1  0  0  0  0
 16 44  1  0  0  0  0
 17 45  1  0  0  0  0
 17 46  1  0  0  0  0
 18 47  1  0  0  0  0
 20 48  1  0  0  0  0
 22 49  1  0  0  0  0
M  END
> <FRED Chemgauss4 score>
-6.110140

$$$$
C70295850	P108368573
  -OEChem-05122015083D

 41 43  0     1  0  0  0  0  0999 V2000
   57.4263  157.2914   -4.7411 C   0  0  0  0  0  0  0  0  0  0  0  0
   58.6738  156.7505   -5.1670 C   0  0  0  0  0  0  0  0  0  0  0  0
   56.4903  157.2915   -5.7517 C   0  0  0  0  0  0  0  0  0  0  0  0
   58.6435  156.3573   -6.4871 C   0  0  0  0  0  0  0  0  0  0  0  0
   54.4638  157.8684   -3.2025 C   0  0  0  0  0  0  0  0  0  0  0  0
   54.6395  156.3686   -3.1245 C   0  0  0  0  0  0  0  0  0  0  0  0
   53.5438  155.6249   -3.8671 C   0  0  0  0  0  0  0  0  0  0  0  0
   55.2643  160.8542   -3.6100 C   0  0  0  0  0  0  0  0  0  0  0  0
   55.6124  160.8019   -5.0694 C   0  0  0  0  0  0  0  0  0  0  0  0
   53.8319  155.4793   -5.3572 C   0  0  0  0  0  0  0  0  0  0  0  0
   55.0389  157.7828   -5.7079 C   0  0  1  0  0  0  0  0  0  0  0  0
   54.5160  159.9261   -4.5275 C   0  0  0  0  0  0  0  0  0  0  0  0
   53.9299  156.7846   -6.1606 C   0  0  2  0  0  0  0  0  0  0  0  0
   59.5527  154.2441   -7.4842 C   0  0  0  0  0  0  0  0  0  0  0  0
   59.7268  155.7534   -7.2926 C   0  0  0  0  0  0  0  0  0  0  0  0
   54.6788  158.4782   -4.4372 N   0  0  0  0  0  0  0  0  0  0  0  0
   52.6154  157.4441   -6.1995 N   0  0  0  0  0  0  0  0  0  0  0  0
   54.1441  158.4884   -2.1831 O   0  0  0  0  0  0  0  0  0  0  0  0
   57.1160  156.6411   -7.2070 S   0  0  0  0  0  0  0  0  0  0  0  0
   57.2295  157.6597   -3.7422 H   0  0  0  0  0  0  0  0  0  0  0  0
   59.5463  156.6548   -4.5333 H   0  0  0  0  0  0  0  0  0  0  0  0
   55.6426  156.0698   -3.4375 H   0  0  0  0  0  0  0  0  0  0  0  0
   54.5721  156.1020   -2.0613 H   0  0  0  0  0  0  0  0  0  0  0  0
   53.4607  154.6161   -3.4436 H   0  0  0  0  0  0  0  0  0  0  0  0
   52.5722  156.1091   -3.7132 H   0  0  0  0  0  0  0  0  0  0  0  0
   55.9707  160.4280   -2.9081 H   0  0  0  0  0  0  0  0  0  0  0  0
   54.7438  161.7315   -3.2459 H   0  0  0  0  0  0  0  0  0  0  0  0
   55.3257  161.6439   -5.6872 H   0  0  0  0  0  0  0  0  0  0  0  0
   56.5528  160.3408   -5.3454 H   0  0  0  0  0  0  0  0  0  0  0  0
   54.7606  154.9081   -5.4852 H   0  0  0  0  0  0  0  0  0  0  0  0
   53.0452  154.8506   -5.7964 H   0  0  0  0  0  0  0  0  0  0  0  0
   55.0245  158.5982   -6.4999 H   0  0  0  0  0  0  0  0  0  0  0  0
   53.5001  160.2074   -4.7827 H   0  0  0  0  0  0  0  0  0  0  0  0
   54.1662  156.4886   -7.1900 H   0  0  0  0  0  0  0  0  0  0  0  0
   59.4842  153.7346   -6.5171 H   0  0  0  0  0  0  0  0  0  0  0  0
   60.3964  153.8156   -8.0342 H   0  0  0  0  0  0  0  0  0  0  0  0
   58.6370  154.0263   -8.0443 H   0  0  0  0  0  0  0  0  0  0  0  0
   59.7915  156.2283   -8.2897 H   0  0  0  0  0  0  0  0  0  0  0  0
   60.7147  155.9366   -6.8295 H   0  0  0  0  0  0  0  0  0  0  0  0
   51.8073  156.8658   -6.1813 H   0  0  0  0  0  0  0  0  0  0  0  0
   52.5882  158.4067   -6.4452 H   0  0  0  0  0  0  0  0  0  0  0  0
  1  2  1  0  0  0  0
  1  3  2  0  0  0  0
  2  4  2  0  0  0  0
  3 11  1  0  0  0  0
  3 19  1  0  0  0  0
  4 15  1  0  0  0  0
  4 19  1  0  0  0  0
  5  6  1  0  0  0  0
  5 16  1  0  0  0  0
  5 18  2  0  0  0  0
  6  7  1  0  0  0  0
  7 10  1  0  0  0  0
  8  9  1  0  0  0  0
  8 12  1  0  0  0  0
  9 12  1  0  0  0  0
 10 13  1  0  0  0  0
 11 13  1  0  0  0  0
 11 16  1  0  0  0  0
 12 16  1  0  0  0  0
 13 17  1  0  0  0  0
 14 15  1  0  0  0  0
  1 20  1  0  0  0  0
  2 21  1  0  0  0  0
  6 22  1  0  0  0  0
  6 23  1  0  0  0  0
  7 24  1  0  0  0  0
  7 25  1  0  0  0  0
  8 26  1  0  0  0  0
  8 27  1  0  0  0  0
  9 28  1  0  0  0  0
  9 29  1  0  0  0  0
 10 30  1  0  0  0  0
 10 31  1  0  0  0  0
 11 32  1  0  0  0  0
 12 33  1  0  0  0  0
 13 34  1  0  0  0  0
 14 35  1  0  0  0  0
 14 36  1  0  0  0  0
 14 37  1  0  0  0  0
 15 38  1  0  0  0  0
 15 39  1  0  0  0  0
 17 40  1  0  0  0  0
 17 41  1  0  0  0  0
M  END
> <FRED Chemgauss4 score>
-6.107371

$$$$
C11991515	P128707706
  -OEChem-05122015083D

 22 22  0     1  0  0  0  0  0999 V2000
   54.3861  155.1742   -6.3095 C   0  0  0  0  0  0  0  0  0  0  0  0
   55.5423  155.3072   -5.3758 C   0  0  0  0  0  0  0  0  0  0  0  0
   54.0678  156.1822   -3.8283 C   0  0  0  0  0  0  0  0  0  0  0  0
   59.2252  155.1822   -7.6900 C   0  0  0  0  0  0  0  0  0  0  0  0
   56.9063  154.3638   -7.1581 C   0  0  0  0  0  0  0  0  0  0  0  0
   58.3666  153.9682   -7.3615 C   0  0  1  0  0  0  0  0  0  0  0  0
   53.1928  155.5289   -5.9838 N   0  0  0  0  0  0  0  0  0  0  0  0
   55.3364  155.7975   -4.1947 N   0  0  0  0  0  0  0  0  0  0  0  0
   53.0398  156.0318   -4.7425 N   0  0  0  0  0  0  0  0  0  0  0  0
   56.7246  154.9055   -5.8303 N   0  0  0  0  0  0  0  0  0  0  0  0
   53.8334  156.6529   -2.7138 O   0  0  0  0  0  0  0  0  0  0  0  0
   58.4423  153.0483   -8.4491 O   0  0  0  0  0  0  0  0  0  0  0  0
   54.6064  154.7530   -7.3029 H   0  0  0  0  0  0  0  0  0  0  0  0
   58.8564  155.7014   -8.5798 H   0  0  0  0  0  0  0  0  0  0  0  0
   59.2432  155.8880   -6.8521 H   0  0  0  0  0  0  0  0  0  0  0  0
   60.2629  154.8807   -7.8692 H   0  0  0  0  0  0  0  0  0  0  0  0
   56.6031  155.1214   -7.8887 H   0  0  0  0  0  0  0  0  0  0  0  0
   56.2505  153.4945   -7.2725 H   0  0  0  0  0  0  0  0  0  0  0  0
   58.7576  153.4679   -6.4680 H   0  0  0  0  0  0  0  0  0  0  0  0
   52.1087  156.3193   -4.4596 H   0  0  0  0  0  0  0  0  0  0  0  0
   57.5272  154.9887   -5.2076 H   0  0  0  0  0  0  0  0  0  0  0  0
   59.3764  152.8054   -8.5393 H   0  0  0  0  0  0  0  0  0  0  0  0
  1  2  1  0  0  0  0
  1  7  2  0  0  0  0
  2  8  2  0  0  0  0
  2 10  1  0  0  0  0
  3  8  1  0  0  0  0
  3  9  1  0  0  0  0
  3 11  2  0  0  0  0
  4  6  1  0  0  0  0
  5  6  1  0  0  0  0
  5 10  1  0  0  0  0
  6 12  1  0  0  0  0
  7  9  1  0  0  0  0
  1 13  1  0  0  0  0
  4 14  1  0  0  0  0
  4 15  1  0  0  0  0
  4 16  1  0  0  0  0
  5 17  1  0  0  0  0
  5 18  1  0  0  0  0
  6 19  1  0  0  0  0
  9 20  1  0  0  0  0
 10 21  1  0  0  0  0
 12 22  1  0  0  0  0
M  END
> <FRED Chemgauss4 score>
-6.106380

$$$$
C90805554	P142050179
  -OEChem-05122015083D

 29 29  0     1  0  0  0  0  0999 V2000
   56.0345  155.9385   -4.4396 C   0  0  0  0  0  0  0  0  0  0  0  0
   55.0280  156.2674   -3.6205 C   0  0  0  0  0  0  0  0  0  0  0  0
   53.6341  156.0683   -4.0991 C   0  0  0  0  0  0  0  0  0  0  0  0
   54.5767  155.2038   -6.2389 C   0  0  0  0  0  0  0  0  0  0  0  0
   54.9625  158.3167   -2.2415 C   0  0  0  0  0  0  0  0  0  0  0  0
   55.2267  156.8261   -2.2483 C   0  0  0  0  0  0  0  0  0  0  0  0
   57.8575  154.0239   -5.7715 C   0  0  0  0  0  0  0  0  0  0  0  0
   57.0453  155.1104   -6.4886 C   0  0  2  0  0  0  0  0  0  0  0  0
   57.8307  156.3876   -6.7477 C   0  0  0  0  0  0  0  0  0  0  0  0
   53.5271  155.5487   -5.3802 N   0  0  0  0  0  0  0  0  0  0  0  0
   55.8543  155.4236   -5.7070 N   0  0  0  0  0  0  0  0  0  0  0  0
   59.0291  153.6087   -6.5339 N   0  0  0  0  0  0  0  0  0  0  0  0
   52.6663  156.3494   -3.3971 O   0  0  0  0  0  0  0  0  0  0  0  0
   54.3564  154.7473   -7.3627 O   0  0  0  0  0  0  0  0  0  0  0  0
   57.0512  157.3219   -7.3388 F   0  0  0  0  0  0  0  0  0  0  0  0
   58.2948  156.9274   -5.5997 F   0  0  0  0  0  0  0  0  0  0  0  0
   58.8896  156.1648   -7.5558 F   0  0  0  0  0  0  0  0  0  0  0  0
   57.0669  156.0682   -4.1294 H   0  0  0  0  0  0  0  0  0  0  0  0
   55.6449  158.8274   -2.9279 H   0  0  0  0  0  0  0  0  0  0  0  0
   55.1034  158.7368   -1.2399 H   0  0  0  0  0  0  0  0  0  0  0  0
   53.9357  158.5369   -2.5517 H   0  0  0  0  0  0  0  0  0  0  0  0
   54.5483  156.3096   -1.5645 H   0  0  0  0  0  0  0  0  0  0  0  0
   56.2553  156.6163   -1.9438 H   0  0  0  0  0  0  0  0  0  0  0  0
   58.1970  154.4010   -4.7994 H   0  0  0  0  0  0  0  0  0  0  0  0
   57.2269  153.1503   -5.5669 H   0  0  0  0  0  0  0  0  0  0  0  0
   56.6807  154.7205   -7.4464 H   0  0  0  0  0  0  0  0  0  0  0  0
   52.5860  155.4019   -5.7345 H   0  0  0  0  0  0  0  0  0  0  0  0
   59.4016  152.6981   -6.3667 H   0  0  0  0  0  0  0  0  0  0  0  0
   59.5350  154.3063   -7.0373 H   0  0  0  0  0  0  0  0  0  0  0  0
  1  2  2  0  0  0  0
  1 11  1  0  0  0  0
  2  3  1  0  0  0  0
  2  6  1  0  0  0  0
  3 10  1  0  0  0  0
  3 13  2  0  0  0  0
  4 10  1  0  0  0  0
  4 11  1  0  0  0  0
  4 14  2  0  0  0  0
  5  6  1  0  0  0  0
  7  8  1  0  0  0  0
  7 12  1  0  0  0  0
  8  9  1  0  0  0  0
  8 11  1  0  0  0  0
  9 15  1  0  0  0  0
  9 16  1  0  0  0  0
  9 17  1  0  0  0  0
  1 18  1  0  0  0  0
  5 19  1  0  0  0  0
  5 20  1  0  0  0  0
  5 21  1  0  0  0  0
  6 22  1  0  0  0  0
  6 23  1  0  0  0  0
  7 24  1  0  0  0  0
  7 25  1  0  0  0  0
  8 26  1  0  0  0  0
 10 27  1  0  0  0  0
 12 28  1  0  0  0  0
 12 29  1  0  0  0  0
M  END
> <FRED Chemgauss4 score>
-6.103079

$$$$
C87448493	P136805577
  -OEChem-05122015083D

 19 19  0     0  0  0  0  0  0999 V2000
   57.2909  159.8680   -3.1090 C   0  0  0  0  0  0  0  0  0  0  0  0
   54.4248  156.1356   -4.0908 C   0  0  0  0  0  0  0  0  0  0  0  0
   54.5127  154.6795   -5.5838 C   0  0  0  0  0  0  0  0  0  0  0  0
   54.8549  157.0705   -3.0193 C   0  0  0  0  0  0  0  0  0  0  0  0
   54.8845  153.6506   -6.5681 C   0  0  0  0  0  0  0  0  0  0  0  0
   56.3259  158.9868   -2.4539 C   0  0  0  0  0  0  0  0  0  0  0  0
   58.0572  160.5694   -3.6260 N   0  0  0  0  0  0  0  0  0  0  0  0
   55.2973  155.3117   -4.7423 N   0  0  0  0  0  0  0  0  0  0  0  0
   53.1496  156.0529   -4.4763 N   0  0  0  0  0  0  0  0  0  0  0  0
   53.2332  155.1148   -5.4318 N   0  0  0  0  0  0  0  0  0  0  0  0
   55.7912  158.0230   -3.3887 N   0  0  0  0  0  0  0  0  0  0  0  0
   54.3894  156.9437   -1.8898 O   0  0  0  0  0  0  0  0  0  0  0  0
   54.8216  152.6377   -6.1337 H   0  0  0  0  0  0  0  0  0  0  0  0
   54.2321  153.6697   -7.4599 H   0  0  0  0  0  0  0  0  0  0  0  0
   55.9142  153.7859   -6.9459 H   0  0  0  0  0  0  0  0  0  0  0  0
   56.7921  158.4306   -1.6357 H   0  0  0  0  0  0  0  0  0  0  0  0
   55.4846  159.5561   -2.0484 H   0  0  0  0  0  0  0  0  0  0  0  0
   52.3933  154.8315   -5.9226 H   0  0  0  0  0  0  0  0  0  0  0  0
   56.1775  158.0268   -4.3271 H   0  0  0  0  0  0  0  0  0  0  0  0
  1  6  1  0  0  0  0
  1  7  3  0  0  0  0
  2  4  1  0  0  0  0
  2  8  1  0  0  0  0
  2  9  2  0  0  0  0
  3  5  1  0  0  0  0
  3  8  2  0  0  0  0
  3 10  1  0  0  0  0
  4 11  1  0  0  0  0
  4 12  2  0  0  0  0
  6 11  1  0  0  0  0
  9 10  1  0  0  0  0
  5 13  1  0  0  0  0
  5 14  1  0  0  0  0
  5 15  1  0  0  0  0
  6 16  1  0  0  0  0
  6 17  1  0  0  0  0
 10 18  1  0  0  0  0
 11 19  1  0  0  0  0
M  END
> <FRED Chemgauss4 score>
-6.098639

$$$$
C71789783	P111278390
  -OEChem-05122015083D

 26 26  0     1  0  0  0  0  0999 V2000
   56.3236  154.0220   -6.2058 C   0  0  0  0  0  0  0  0  0  0  0  0
   55.7547  154.9337   -5.1391 C   0  0  2  0  0  0  0  0  0  0  0  0
   54.2277  154.8490   -5.1623 C   0  0  1  0  0  0  0  0  0  0  0  0
   53.6233  155.8674   -4.1909 C   0  0  2  0  0  0  0  0  0  0  0  0
   54.2387  157.2565   -4.4118 C   0  0  2  0  0  0  0  0  0  0  0  0
   55.7688  157.2066   -4.4579 C   0  0  1  0  0  0  0  0  0  0  0  0
   58.3558  153.2905   -7.1645 C   0  0  0  0  0  0  0  0  0  0  0  0
   55.6426  153.3258   -6.9466 O   0  0  0  0  0  0  0  0  0  0  0  0
   56.2028  156.2540   -5.4302 O   0  0  0  0  0  0  0  0  0  0  0  0
   53.7580  155.1440   -6.4786 O   0  0  0  0  0  0  0  0  0  0  0  0
   53.8327  155.4294   -2.8488 O   0  0  0  0  0  0  0  0  0  0  0  0
   53.8234  158.1453   -3.3794 O   0  0  0  0  0  0  0  0  0  0  0  0
   56.2390  158.5062   -4.8156 O   0  0  0  0  0  0  0  0  0  0  0  0
   57.6844  154.1067   -6.1996 O   0  0  0  0  0  0  0  0  0  0  0  0
   56.1541  154.6006   -4.1811 H   0  0  0  0  0  0  0  0  0  0  0  0
   53.9127  153.8308   -4.9115 H   0  0  0  0  0  0  0  0  0  0  0  0
   52.5224  155.9370   -4.3374 H   0  0  0  0  0  0  0  0  0  0  0  0
   53.8668  157.6642   -5.3601 H   0  0  0  0  0  0  0  0  0  0  0  0
   56.1867  156.9636   -3.4745 H   0  0  0  0  0  0  0  0  0  0  0  0
   59.4355  153.4326   -7.0750 H   0  0  0  0  0  0  0  0  0  0  0  0
   58.0235  153.5643   -8.1690 H   0  0  0  0  0  0  0  0  0  0  0  0
   58.1116  152.2425   -6.9751 H   0  0  0  0  0  0  0  0  0  0  0  0
   52.7917  155.0786   -6.4454 H   0  0  0  0  0  0  0  0  0  0  0  0
   53.3913  154.5706   -2.7699 H   0  0  0  0  0  0  0  0  0  0  0  0
   52.8554  158.1898   -3.4245 H   0  0  0  0  0  0  0  0  0  0  0  0
   57.2065  158.4516   -4.8388 H   0  0  0  0  0  0  0  0  0  0  0  0
  1  2  1  0  0  0  0
  1  8  2  0  0  0  0
  1 14  1  0  0  0  0
  2  3  1  0  0  0  0
  2  9  1  0  0  0  0
  3  4  1  0  0  0  0
  3 10  1  0  0  0  0
  4  5  1  0  0  0  0
  4 11  1  0  0  0  0
  5  6  1  0  0  0  0
  5 12  1  0  0  0  0
  6  9  1  0  0  0  0
  6 13  1  0  0  0  0
  7 14  1  0  0  0  0
  2 15  1  0  0  0  0
  3 16  1  0  0  0  0
  4 17  1  0  0  0  0
  5 18  1  0  0  0  0
  6 19  1  0  0  0  0
  7 20  1  0  0  0  0
  7 21  1  0  0  0  0
  7 22  1  0  0  0  0
 10 23  1  0  0  0  0
 11 24  1  0  0  0  0
 12 25  1  0  0  0  0
 13 26  1  0  0  0  0
M  END
> <FRED Chemgauss4 score>
-6.096260

$$$$
C39065006	P59185477
  -OEChem-05122015083D

 20 20  0     0  0  0  0  0  0999 V2000
   56.0833  155.9983   -5.1239 C   0  0  0  0  0  0  0  0  0  0  0  0
   54.8272  156.5373   -5.2583 C   0  0  0  0  0  0  0  0  0  0  0  0
   54.1915  155.7159   -6.2086 C   0  0  0  0  0  0  0  0  0  0  0  0
   54.3406  157.6855   -4.5527 C   0  0  0  0  0  0  0  0  0  0  0  0
   57.2418  154.0419   -6.1775 C   0  0  0  0  0  0  0  0  0  0  0  0
   54.9789  154.7301   -6.6470 N   0  0  0  0  0  0  0  0  0  0  0  0
   56.1223  154.9287   -5.9693 N   0  0  0  0  0  0  0  0  0  0  0  0
   52.9119  155.9396   -6.6078 N   0  0  0  0  0  0  0  0  0  0  0  0
   54.0788  160.0916   -4.5534 N   0  0  0  0  0  0  0  0  0  0  0  0
   54.5418  158.9385   -5.1603 N   0  0  0  0  0  0  0  0  0  0  0  0
   53.7378  157.6210   -3.4556 O   0  0  0  0  0  0  0  0  0  0  0  0
   56.9326  156.2767   -4.5146 H   0  0  0  0  0  0  0  0  0  0  0  0
   57.1577  153.2189   -5.4630 H   0  0  0  0  0  0  0  0  0  0  0  0
   57.2196  153.6619   -7.2027 H   0  0  0  0  0  0  0  0  0  0  0  0
   58.1733  154.5927   -6.0200 H   0  0  0  0  0  0  0  0  0  0  0  0
   52.3419  156.6877   -6.1977 H   0  0  0  0  0  0  0  0  0  0  0  0
   52.4348  155.3123   -7.2648 H   0  0  0  0  0  0  0  0  0  0  0  0
   53.8062  160.7287   -5.3008 H   0  0  0  0  0  0  0  0  0  0  0  0
   53.2176  159.8435   -4.0683 H   0  0  0  0  0  0  0  0  0  0  0  0
   55.0290  158.9963   -6.0481 H   0  0  0  0  0  0  0  0  0  0  0  0
  1  2  2  0  0  0  0
  1  7  1  0  0  0  0
  2  3  1  0  0  0  0
  2  4  1  0  0  0  0
  3  6  2  0  0  0  0
  3  8  1  0  0  0  0
  4 10  1  0  0  0  0
  4 11  2  0  0  0  0
  5  7  1  0  0  0  0
  6  7  1  0  0  0  0
  9 10  1  0  0  0  0
  1 12  1  0  0  0  0
  5 13  1  0  0  0  0
  5 14  1  0  0  0  0
  5 15  1  0  0  0  0
  8 16  1  0  0  0  0
  8 17  1  0  0  0  0
  9 18  1  0  0  0  0
  9 19  1  0  0  0  0
 10 20  1  0  0  0  0
M  END
> <FRED Chemgauss4 score>
-6.095002

$$$$
C48630886	P72699249
  -OEChem-05122015083D

 26 26  0     1  0  0  0  0  0999 V2000
   54.8876  159.5618   -3.8332 C   0  0  0  0  0  0  0  0  0  0  0  0
   56.0576  160.7797   -2.6065 C   0  0  0  0  0  0  0  0  0  0  0  0
   57.5360  160.6751   -0.5841 C   0  0  0  0  0  0  0  0  0  0  0  0
   55.4354  156.5472   -6.2697 C   0  0  0  0  0  0  0  0  0  0  0  0
   57.1188  161.4517   -1.8396 C   0  0  0  0  0  0  0  0  0  0  0  0
   54.5067  158.4516   -4.8029 C   0  0  1  0  0  0  0  0  0  0  0  0
   55.7457  157.6335   -5.2419 C   0  0  2  0  0  0  0  0  0  0  0  0
   56.1719  159.7460   -3.4076 N   0  0  0  0  0  0  0  0  0  0  0  0
   53.9857  160.4166   -3.3458 N   0  0  0  0  0  0  0  0  0  0  0  0
   54.7599  161.1847   -2.5643 N   0  0  0  0  0  0  0  0  0  0  0  0
   53.4714  157.5947   -4.2144 N   0  0  0  0  0  0  0  0  0  0  0  0
   56.7022  158.5177   -5.8364 O   0  0  0  0  0  0  0  0  0  0  0  0
   56.6706  160.4892    0.0610 H   0  0  0  0  0  0  0  0  0  0  0  0
   58.2806  161.2269   -0.0019 H   0  0  0  0  0  0  0  0  0  0  0  0
   57.9676  159.7055   -0.8548 H   0  0  0  0  0  0  0  0  0  0  0  0
   54.9425  156.9534   -7.1573 H   0  0  0  0  0  0  0  0  0  0  0  0
   54.7971  155.7691   -5.8368 H   0  0  0  0  0  0  0  0  0  0  0  0
   56.3591  156.0523   -6.5904 H   0  0  0  0  0  0  0  0  0  0  0  0
   58.0229  161.6164   -2.4602 H   0  0  0  0  0  0  0  0  0  0  0  0
   56.8092  162.4702   -1.5288 H   0  0  0  0  0  0  0  0  0  0  0  0
   54.0749  158.9174   -5.6988 H   0  0  0  0  0  0  0  0  0  0  0  0
   56.2364  157.1669   -4.3801 H   0  0  0  0  0  0  0  0  0  0  0  0
   54.3387  161.9471   -2.0465 H   0  0  0  0  0  0  0  0  0  0  0  0
   53.3606  156.6805   -4.5879 H   0  0  0  0  0  0  0  0  0  0  0  0
   52.8001  158.0229   -3.6197 H   0  0  0  0  0  0  0  0  0  0  0  0
   57.4785  157.9771   -6.0408 H   0  0  0  0  0  0  0  0  0  0  0  0
  1  6  1  0  0  0  0
  1  8  1  0  0  0  0
  1  9  2  0  0  0  0
  2  5  1  0  0  0  0
  2  8  2  0  0  0  0
  2 10  1  0  0  0  0
  3  5  1  0  0  0  0
  4  7  1  0  0  0  0
  6  7  1  0  0  0  0
  6 11  1  0  0  0  0
  7 12  1  0  0  0  0
  9 10  1  0  0  0  0
  3 13  1  0  0  0  0
  3 14  1  0  0  0  0
  3 15  1  0  0  0  0
  4 16  1  0  0  0  0
  4 17  1  0  0  0  0
  4 18  1  0  0  0  0
  5 19  1  0  0  0  0
  5 20  1  0  0  0  0
  6 21  1  0  0  0  0
  7 22  1  0  0  0  0
 10 23  1  0  0  0  0
 11 24  1  0  0  0  0
 11 25  1  0  0  0  0
 12 26  1  0  0  0  0
M  END
> <FRED Chemgauss4 score>
-6.094305

$$$$
C85074710	P133146096
  -OEChem-05122015083D

 27 27  0     1  0  0  0  0  0999 V2000
   56.9328  156.4670   -4.9874 C   0  0  0  0  0  0  0  0  0  0  0  0
   55.9254  154.5394   -5.3107 C   0  0  0  0  0  0  0  0  0  0  0  0
   55.8084  155.7114   -4.6044 C   0  0  0  0  0  0  0  0  0  0  0  0
   59.0392  153.9967   -7.3594 C   0  0  0  0  0  0  0  0  0  0  0  0
   54.4869  157.6279   -3.6089 C   0  0  0  0  0  0  0  0  0  0  0  0
   57.6124  153.6748   -6.9495 C   0  0  0  0  0  0  0  0  0  0  0  0
   53.4133  155.3245   -3.9681 C   0  0  0  0  0  0  0  0  0  0  0  0
   54.7028  156.1045   -3.6190 C   0  0  1  0  0  0  0  0  0  0  0  0
   57.7072  155.8284   -5.8686 N   0  0  0  0  0  0  0  0  0  0  0  0
   57.0685  154.6593   -6.0451 N   0  0  0  0  0  0  0  0  0  0  0  0
   52.9419  155.5738   -5.3293 N   0  0  0  0  0  0  0  0  0  0  0  0
   55.0989  155.7356   -2.2907 O   0  0  0  0  0  0  0  0  0  0  0  0
   57.2227  157.4560   -4.6619 H   0  0  0  0  0  0  0  0  0  0  0  0
   55.3088  153.6517   -5.3514 H   0  0  0  0  0  0  0  0  0  0  0  0
   59.0981  154.9714   -7.8553 H   0  0  0  0  0  0  0  0  0  0  0  0
   59.4152  153.2378   -8.0525 H   0  0  0  0  0  0  0  0  0  0  0  0
   59.7039  154.0242   -6.4895 H   0  0  0  0  0  0  0  0  0  0  0  0
   53.6968  157.9155   -2.9056 H   0  0  0  0  0  0  0  0  0  0  0  0
   54.1565  157.9784   -4.5943 H   0  0  0  0  0  0  0  0  0  0  0  0
   55.3938  158.1778   -3.3381 H   0  0  0  0  0  0  0  0  0  0  0  0
   57.5636  152.6983   -6.4544 H   0  0  0  0  0  0  0  0  0  0  0  0
   56.9595  153.6267   -7.8283 H   0  0  0  0  0  0  0  0  0  0  0  0
   52.6044  155.5876   -3.2769 H   0  0  0  0  0  0  0  0  0  0  0  0
   53.5914  154.2466   -3.8659 H   0  0  0  0  0  0  0  0  0  0  0  0
   53.0047  156.5030   -5.6829 H   0  0  0  0  0  0  0  0  0  0  0  0
   52.3966  154.8671   -5.7718 H   0  0  0  0  0  0  0  0  0  0  0  0
   55.2292  154.7774   -2.3074 H   0  0  0  0  0  0  0  0  0  0  0  0
  1  3  1  0  0  0  0
  1  9  2  0  0  0  0
  2  3  2  0  0  0  0
  2 10  1  0  0  0  0
  3  8  1  0  0  0  0
  4  6  1  0  0  0  0
  5  8  1  0  0  0  0
  6 10  1  0  0  0  0
  7  8  1  0  0  0  0
  7 11  1  0  0  0  0
  8 12  1  0  0  0  0
  9 10  1  0  0  0  0
  1 13  1  0  0  0  0
  2 14  1  0  0  0  0
  4 15  1  0  0  0  0
  4 16  1  0  0  0  0
  4 17  1  0  0  0  0
  5 18  1  0  0  0  0
  5 19  1  0  0  0  0
  5 20  1  0  0  0  0
  6 21  1  0  0  0  0
  6 22  1  0  0  0  0
  7 23  1  0  0  0  0
  7 24  1  0  0  0  0
 11 25  1  0  0  0  0
 11 26  1  0  0  0  0
 12 27  1  0  0  0  0
M  END
> <FRED Chemgauss4 score>
-6.090411

$$$$
C01532566	P57081967
  -OEChem-05122015083D

 22 22  0     1  0  0  0  0  0999 V2000
   55.4079  157.0434   -4.6139 C   0  0  0  0  0  0  0  0  0  0  0  0
   55.0418  156.4164   -3.2893 C   0  0  2  0  0  0  0  0  0  0  0  0
   53.5612  156.0876   -3.2754 C   0  0  1  0  0  0  0  0  0  0  0  0
   53.1793  155.1492   -4.4207 C   0  0  2  0  0  0  0  0  0  0  0  0
   54.1468  155.1944   -5.6093 C   0  0  2  0  0  0  0  0  0  0  0  0
   55.1606  154.0521   -5.6054 C   0  0  0  0  0  0  0  0  0  0  0  0
   56.1476  158.0171   -4.7146 O   0  0  0  0  0  0  0  0  0  0  0  0
   54.8543  156.4531   -5.7047 O   0  0  0  0  0  0  0  0  0  0  0  0
   55.3076  157.3675   -2.2657 O   0  0  0  0  0  0  0  0  0  0  0  0
   53.2453  155.4526   -2.0351 O   0  0  0  0  0  0  0  0  0  0  0  0
   51.8879  155.5548   -4.8946 O   0  0  0  0  0  0  0  0  0  0  0  0
   54.4561  152.8248   -5.6482 O   0  0  0  0  0  0  0  0  0  0  0  0
   55.6419  155.5466   -3.1348 H   0  0  0  0  0  0  0  0  0  0  0  0
   52.9492  157.0129   -3.3081 H   0  0  0  0  0  0  0  0  0  0  0  0
   53.0610  154.1210   -4.0379 H   0  0  0  0  0  0  0  0  0  0  0  0
   53.5556  155.0963   -6.5535 H   0  0  0  0  0  0  0  0  0  0  0  0
   55.7614  154.0916   -4.6970 H   0  0  0  0  0  0  0  0  0  0  0  0
   55.8082  154.1268   -6.4788 H   0  0  0  0  0  0  0  0  0  0  0  0
   56.2555  157.5720   -2.3126 H   0  0  0  0  0  0  0  0  0  0  0  0
   53.7857  154.6497   -1.9948 H   0  0  0  0  0  0  0  0  0  0  0  0
   51.6576  154.9530   -5.6194 H   0  0  0  0  0  0  0  0  0  0  0  0
   55.1199  152.1141   -5.6449 H   0  0  0  0  0  0  0  0  0  0  0  0
  1  2  1  0  0  0  0
  1  7  2  0  0  0  0
  1  8  1  0  0  0  0
  2  3  1  0  0  0  0
  2  9  1  0  0  0  0
  3  4  1  0  0  0  0
  3 10  1  0  0  0  0
  4  5  1  0  0  0  0
  4 11  1  0  0  0  0
  5  6  1  0  0  0  0
  5  8  1  0  0  0  0
  6 12  1  0  0  0  0
  2 13  1  0  0  0  0
  3 14  1  0  0  0  0
  4 15  1  0  0  0  0
  5 16  1  0  0  0  0
  6 17  1  0  0  0  0
  6 18  1  0  0  0  0
  9 19  1  0  0  0  0
 10 20  1  0  0  0  0
 11 21  1  0  0  0  0
 12 22  1  0  0  0  0
M  END
> <FRED Chemgauss4 score>
-6.090170

$$$$
C03872997	P04549451
  -OEChem-05122015083D

 28 29  0     1  0  0  0  0  0999 V2000
   54.7825  157.8948   -2.7537 C   0  0  0  0  0  0  0  0  0  0  0  0
   54.6659  156.3898   -2.8900 C   0  0  0  0  0  0  0  0  0  0  0  0
   56.6768  155.9436   -6.5886 C   0  0  1  0  0  0  0  0  0  0  0  0
   56.6861  154.7170   -5.6461 C   0  0  2  0  0  0  0  0  0  0  0  0
   56.2019  157.2619   -5.9298 C   0  0  1  0  0  0  0  0  0  0  0  0
   55.5512  154.7397   -4.6072 C   0  0  2  0  0  0  0  0  0  0  0  0
   56.2531  157.1815   -4.4124 C   0  0  1  0  0  0  0  0  0  0  0  0
   54.2060  154.4192   -5.2654 C   0  0  0  0  0  0  0  0  0  0  0  0
   55.6663  158.3043   -3.7297 N   0  0  0  0  0  0  0  0  0  0  0  0
   55.4977  156.0417   -3.9325 N   0  0  0  0  0  0  0  0  0  0  0  0
   54.1637  158.5261   -1.9239 O   0  0  0  0  0  0  0  0  0  0  0  0
   53.9154  155.7353   -2.1978 O   0  0  0  0  0  0  0  0  0  0  0  0
   57.9641  156.1017   -7.1810 O   0  0  0  0  0  0  0  0  0  0  0  0
   57.9441  154.6142   -4.9696 O   0  0  0  0  0  0  0  0  0  0  0  0
   56.9715  158.3708   -6.3789 O   0  0  0  0  0  0  0  0  0  0  0  0
   53.9462  155.3993   -6.2521 O   0  0  0  0  0  0  0  0  0  0  0  0
   55.9980  155.7113   -7.4740 H   0  0  0  0  0  0  0  0  0  0  0  0
   56.5857  153.8011   -6.2690 H   0  0  0  0  0  0  0  0  0  0  0  0
   55.1486  157.4492   -6.2564 H   0  0  0  0  0  0  0  0  0  0  0  0
   55.7098  153.9920   -3.8454 H   0  0  0  0  0  0  0  0  0  0  0  0
   57.2959  157.0891   -4.0392 H   0  0  0  0  0  0  0  0  0  0  0  0
   53.4154  154.4395   -4.5170 H   0  0  0  0  0  0  0  0  0  0  0  0
   54.2490  153.4367   -5.7327 H   0  0  0  0  0  0  0  0  0  0  0  0
   55.8749  159.2729   -3.9384 H   0  0  0  0  0  0  0  0  0  0  0  0
   58.1365  155.2865   -7.6737 H   0  0  0  0  0  0  0  0  0  0  0  0
   57.8883  153.8324   -4.3982 H   0  0  0  0  0  0  0  0  0  0  0  0
   56.8536  158.4187   -7.3405 H   0  0  0  0  0  0  0  0  0  0  0  0
   53.0898  155.1782   -6.6571 H   0  0  0  0  0  0  0  0  0  0  0  0
  1  2  1  0  0  0  0
  1  9  1  0  0  0  0
  1 11  2  0  0  0  0
  2 10  1  0  0  0  0
  2 12  2  0  0  0  0
  3  4  1  0  0  0  0
  3  5  1  0  0  0  0
  3 13  1  0  0  0  0
  4  6  1  0  0  0  0
  4 14  1  0  0  0  0
  5  7  1  0  0  0  0
  5 15  1  0  0  0  0
  6  8  1  0  0  0  0
  6 10  1  0  0  0  0
  7  9  1  0  0  0  0
  7 10  1  0  0  0  0
  8 16  1  0  0  0  0
  3 17  1  0  0  0  0
  4 18  1  0  0  0  0
  5 19  1  0  0  0  0
  6 20  1  0  0  0  0
  7 21  1  0  0  0  0
  8 22  1  0  0  0  0
  8 23  1  0  0  0  0
  9 24  1  0  0  0  0
 13 25  1  0  0  0  0
 14 26  1  0  0  0  0
 15 27  1  0  0  0  0
 16 28  1  0  0  0  0
M  END
> <FRED Chemgauss4 score>
-6.083414

$$$$
C74309835	P115824025
  -OEChem-05122015083D

 20 20  0     1  0  0  0  0  0999 V2000
   55.8809  154.2335   -5.6054 C   0  0  0  0  0  0  0  0  0  0  0  0
   56.9742  154.3597   -6.4471 C   0  0  0  0  0  0  0  0  0  0  0  0
   57.0187  156.6427   -6.1937 C   0  0  0  0  0  0  0  0  0  0  0  0
   55.3534  155.3918   -5.0455 C   0  0  0  0  0  0  0  0  0  0  0  0
   55.9273  156.6235   -5.3403 C   0  0  0  0  0  0  0  0  0  0  0  0
   54.4445  155.8167   -2.7220 C   0  0  0  0  0  0  0  0  0  0  0  0
   54.1744  155.2731   -4.1358 C   0  0  1  0  0  0  0  0  0  0  0  0
   57.5588  155.5387   -6.7568 N   0  0  0  0  0  0  0  0  0  0  0  0
   52.9999  155.9208   -4.6984 N   0  0  0  0  0  0  0  0  0  0  0  0
   53.5196  155.2491   -1.8000 O   0  0  0  0  0  0  0  0  0  0  0  0
   55.3287  158.0963   -4.6849 Cl  0  0  0  0  0  0  0  0  0  0  0  0
   55.4569  153.2573   -5.3960 H   0  0  0  0  0  0  0  0  0  0  0  0
   57.4229  153.4866   -6.9093 H   0  0  0  0  0  0  0  0  0  0  0  0
   57.5125  157.5715   -6.4636 H   0  0  0  0  0  0  0  0  0  0  0  0
   55.4523  155.5416   -2.3919 H   0  0  0  0  0  0  0  0  0  0  0  0
   54.3467  156.9069   -2.6799 H   0  0  0  0  0  0  0  0  0  0  0  0
   53.8730  154.2160   -4.0328 H   0  0  0  0  0  0  0  0  0  0  0  0
   52.2707  156.2053   -4.0764 H   0  0  0  0  0  0  0  0  0  0  0  0
   52.8630  155.8794   -5.6879 H   0  0  0  0  0  0  0  0  0  0  0  0
   53.7313  155.6218   -0.9297 H   0  0  0  0  0  0  0  0  0  0  0  0
  1  2  1  0  0  0  0
  1  4  2  0  0  0  0
  2  8  2  0  0  0  0
  3  5  2  0  0  0  0
  3  8  1  0  0  0  0
  4  5  1  0  0  0  0
  4  7  1  0  0  0  0
  5 11  1  0  0  0  0
  6  7  1  0  0  0  0
  6 10  1  0  0  0  0
  7  9  1  0  0  0  0
  1 12  1  0  0  0  0
  2 13  1  0  0  0  0
  3 14  1  0  0  0  0
  6 15  1  0  0  0  0
  6 16  1  0  0  0  0
  7 17  1  0  0  0  0
  9 18  1  0  0  0  0
  9 19  1  0  0  0  0
 10 20  1  0  0  0  0
M  END
> <FRED Chemgauss4 score>
-6.081571

$$$$
C82578002	P129061742
  -OEChem-05122015083D

 30 30  0     1  0  0  0  0  0999 V2000
   58.0037  161.5619    0.7187 C   0  0  0  0  0  0  0  0  0  0  0  0
   57.8778  160.8042   -0.4217 C   0  0  0  0  0  0  0  0  0  0  0  0
   56.6876  159.9708    1.2352 C   0  0  0  0  0  0  0  0  0  0  0  0
   54.9986  158.0370   -2.7986 C   0  0  0  0  0  0  0  0  0  0  0  0
   55.7123  155.5854   -4.4463 C   0  0  0  0  0  0  0  0  0  0  0  0
   55.4847  159.1628   -1.9041 C   0  0  0  0  0  0  0  0  0  0  0  0
   56.5789  158.7078   -0.9436 C   0  0  0  0  0  0  0  0  0  0  0  0
   54.0656  157.1786   -5.5663 C   0  0  0  0  0  0  0  0  0  0  0  0
   55.4753  156.9856   -5.0031 C   0  0  1  0  0  0  0  0  0  0  0  0
   57.2606  161.0376    1.7466 N   0  0  0  0  0  0  0  0  0  0  0  0
   57.0321  159.7883   -0.0753 N   0  0  0  0  0  0  0  0  0  0  0  0
   53.8796  158.5085   -6.1004 N   0  0  0  0  0  0  0  0  0  0  0  0
   55.7316  157.9670   -3.9743 N   0  0  0  0  0  0  0  0  0  0  0  0
   54.0684  157.2937   -2.4979 O   0  0  0  0  0  0  0  0  0  0  0  0
   58.5916  162.4583    0.8519 H   0  0  0  0  0  0  0  0  0  0  0  0
   58.3011  160.8969   -1.4121 H   0  0  0  0  0  0  0  0  0  0  0  0
   56.0214  159.2992    1.7594 H   0  0  0  0  0  0  0  0  0  0  0  0
   55.0253  155.3494   -3.6263 H   0  0  0  0  0  0  0  0  0  0  0  0
   55.5567  154.8307   -5.2254 H   0  0  0  0  0  0  0  0  0  0  0  0
   56.7374  155.4815   -4.0760 H   0  0  0  0  0  0  0  0  0  0  0  0
   55.8546  159.9753   -2.5418 H   0  0  0  0  0  0  0  0  0  0  0  0
   54.6257  159.5512   -1.3431 H   0  0  0  0  0  0  0  0  0  0  0  0
   57.4514  158.3290   -1.4900 H   0  0  0  0  0  0  0  0  0  0  0  0
   56.2276  157.8890   -0.3039 H   0  0  0  0  0  0  0  0  0  0  0  0
   53.3207  157.0105   -4.7803 H   0  0  0  0  0  0  0  0  0  0  0  0
   53.8742  156.4467   -6.3586 H   0  0  0  0  0  0  0  0  0  0  0  0
   56.1927  157.1538   -5.8150 H   0  0  0  0  0  0  0  0  0  0  0  0
   54.2954  159.2859   -5.6197 H   0  0  0  0  0  0  0  0  0  0  0  0
   53.1830  158.6525   -6.8093 H   0  0  0  0  0  0  0  0  0  0  0  0
   56.4823  158.6359   -4.1183 H   0  0  0  0  0  0  0  0  0  0  0  0
  1  2  2  0  0  0  0
  1 10  1  0  0  0  0
  2 11  1  0  0  0  0
  3 10  2  0  0  0  0
  3 11  1  0  0  0  0
  4  6  1  0  0  0  0
  4 13  1  0  0  0  0
  4 14  2  0  0  0  0
  5  9  1  0  0  0  0
  6  7  1  0  0  0  0
  7 11  1  0  0  0  0
  8  9  1  0  0  0  0
  8 12  1  0  0  0  0
  9 13  1  0  0  0  0
  1 15  1  0  0  0  0
  2 16  1  0  0  0  0
  3 17  1  0  0  0  0
  5 18  1  0  0  0  0
  5 19  1  0  0  0  0
  5 20  1  0  0  0  0
  6 21  1  0  0  0  0
  6 22  1  0  0  0  0
  7 23  1  0  0  0  0
  7 24  1  0  0  0  0
  8 25  1  0  0  0  0
  8 26  1  0  0  0  0
  9 27  1  0  0  0  0
 12 28  1  0  0  0  0
 12 29  1  0  0  0  0
 13 30  1  0  0  0  0
M  END
> <FRED Chemgauss4 score>
-6.080447

$$$$
C95023555	P148959325
  -OEChem-05122015083D

 33 34  0     1  0  0  0  0  0999 V2000
   57.4809  157.5004   -4.7566 C   0  0  0  0  0  0  0  0  0  0  0  0
   54.9762  156.2741   -4.6849 C   0  0  0  0  0  0  0  0  0  0  0  0
   56.4922  157.9835   -3.8995 C   0  0  0  0  0  0  0  0  0  0  0  0
   55.2398  157.3703   -3.8637 C   0  0  0  0  0  0  0  0  0  0  0  0
   57.2173  156.4042   -5.5779 C   0  0  0  0  0  0  0  0  0  0  0  0
   55.9650  155.7910   -5.5420 C   0  0  0  0  0  0  0  0  0  0  0  0
   57.1808  160.3750   -1.1819 C   0  0  0  0  0  0  0  0  0  0  0  0
   57.3293  158.9646   -1.7499 C   0  0  0  0  0  0  0  0  0  0  0  0
   56.5374  160.4587   -3.4830 C   0  0  0  0  0  0  0  0  0  0  0  0
   57.2656  161.2794   -2.4091 C   0  0  2  0  0  0  0  0  0  0  0  0
   60.0332  162.7281   -4.3696 C   0  0  0  0  0  0  0  0  0  0  0  0
   58.7120  161.5790   -2.8022 C   0  0  0  0  0  0  0  0  0  0  0  0
   56.7730  159.0681   -3.0959 N   0  0  3  0  0  0  0  0  0  0  0  0
   54.2243  157.8437   -3.0029 N   0  0  0  0  0  0  0  0  0  0  0  0
   58.7115  162.4111   -3.9507 O   0  0  0  0  0  0  0  0  0  0  0  0
   58.4829  155.8520   -6.6183 Cl  0  0  0  0  0  0  0  0  0  0  0  0
   55.5781  154.4297   -6.5351 Cl  0  0  0  0  0  0  0  0  0  0  0  0
   58.4561  157.9827   -4.7803 H   0  0  0  0  0  0  0  0  0  0  0  0
   53.9974  155.7998   -4.6527 H   0  0  0  0  0  0  0  0  0  0  0  0
   56.2414  160.4999   -0.6267 H   0  0  0  0  0  0  0  0  0  0  0  0
   58.0077  160.5855   -0.4860 H   0  0  0  0  0  0  0  0  0  0  0  0
   58.3780  158.6488   -1.7625 H   0  0  0  0  0  0  0  0  0  0  0  0
   56.7479  158.2481   -1.1575 H   0  0  0  0  0  0  0  0  0  0  0  0
   55.4677  160.7051   -3.4972 H   0  0  0  0  0  0  0  0  0  0  0  0
   56.9494  160.6349   -4.4852 H   0  0  0  0  0  0  0  0  0  0  0  0
   56.7373  162.2041   -2.2254 H   0  0  0  0  0  0  0  0  0  0  0  0
   59.9922  163.3685   -5.2541 H   0  0  0  0  0  0  0  0  0  0  0  0
   60.5747  161.8068   -4.5985 H   0  0  0  0  0  0  0  0  0  0  0  0
   60.5445  163.2580   -3.5623 H   0  0  0  0  0  0  0  0  0  0  0  0
   59.2416  160.6522   -3.0350 H   0  0  0  0  0  0  0  0  0  0  0  0
   59.2270  162.0958   -1.9890 H   0  0  0  0  0  0  0  0  0  0  0  0
   53.3231  157.4144   -3.0333 H   0  0  0  0  0  0  0  0  0  0  0  0
   54.3974  158.6571   -2.4498 H   0  0  0  0  0  0  0  0  0  0  0  0
  1  3  1  0  0  0  0
  1  5  2  0  0  0  0
  2  4  1  0  0  0  0
  2  6  2  0  0  0  0
  3  4  2  0  0  0  0
  3 13  1  0  0  0  0
  4 14  1  0  0  0  0
  5  6  1  0  0  0  0
  5 16  1  0  0  0  0
  6 17  1  0  0  0  0
  7  8  1  0  0  0  0
  7 10  1  0  0  0  0
  8 13  1  0  0  0  0
  9 10  1  0  0  0  0
  9 13  1  0  0  0  0
 10 12  1  0  0  0  0
 11 15  1  0  0  0  0
 12 15  1  0  0  0  0
  1 18  1  0  0  0  0
  2 19  1  0  0  0  0
  7 20  1  0  0  0  0
  7 21  1  0  0  0  0
  8 22  1  0  0  0  0
  8 23  1  0  0  0  0
  9 24  1  0  0  0  0
  9 25  1  0  0  0  0
 10 26  1  0  0  0  0
 11 27  1  0  0  0  0
 11 28  1  0  0  0  0
 11 29  1  0  0  0  0
 12 30  1  0  0  0  0
 12 31  1  0  0  0  0
 14 32  1  0  0  0  0
 14 33  1  0  0  0  0
M  END
> <FRED Chemgauss4 score>
-6.077824

$$$$
C37810574	P56238309
  -OEChem-05122015083D

 39 39  0     1  0  0  0  0  0999 V2000
   54.0340  157.8396   -4.5706 C   0  0  0  0  0  0  0  0  0  0  0  0
   55.9410  160.4487   -3.9642 C   0  0  0  0  0  0  0  0  0  0  0  0
   57.9860  160.8120   -1.7345 C   0  0  0  0  0  0  0  0  0  0  0  0
   59.4250  161.1539   -1.3880 C   0  0  0  0  0  0  0  0  0  0  0  0
   58.5506  162.0156   -3.7775 C   0  0  0  0  0  0  0  0  0  0  0  0
   57.4984  161.9029   -2.6821 C   0  0  1  0  0  0  0  0  0  0  0  0
   54.5229  165.5480   -2.8155 C   0  0  0  0  0  0  0  0  0  0  0  0
   53.9707  156.7132   -5.5703 C   0  0  0  0  0  0  0  0  0  0  0  0
   54.5147  160.2831   -4.4584 C   0  0  0  0  0  0  0  0  0  0  0  0
   55.1663  162.5955   -2.9353 C   0  0  0  0  0  0  0  0  0  0  0  0
   55.1437  163.6389   -4.0373 C   0  0  0  0  0  0  0  0  0  0  0  0
   52.6121  156.6215   -6.1245 N   0  0  0  0  0  0  0  0  0  0  0  0
   54.3837  159.0459   -5.1735 N   0  0  0  0  0  0  0  0  0  0  0  0
   56.1977  161.6057   -3.2202 N   0  0  0  0  0  0  0  0  0  0  0  0
   53.8001  157.6948   -3.3736 O   0  0  0  0  0  0  0  0  0  0  0  0
   56.7993  159.5989   -4.2165 O   0  0  0  0  0  0  0  0  0  0  0  0
   54.1128  164.5821   -3.7736 O   0  0  0  0  0  0  0  0  0  0  0  0
   60.1390  161.7942   -2.9280 S   0  0  0  0  0  0  0  0  0  0  0  0
   57.9181  159.8175   -2.1776 H   0  0  0  0  0  0  0  0  0  0  0  0
   57.3776  160.8153   -0.8255 H   0  0  0  0  0  0  0  0  0  0  0  0
   59.4874  161.8961   -0.5891 H   0  0  0  0  0  0  0  0  0  0  0  0
   59.9829  160.2638   -1.0849 H   0  0  0  0  0  0  0  0  0  0  0  0
   58.4277  161.2746   -4.5690 H   0  0  0  0  0  0  0  0  0  0  0  0
   58.5430  163.0148   -4.2185 H   0  0  0  0  0  0  0  0  0  0  0  0
   57.4041  162.8592   -2.1532 H   0  0  0  0  0  0  0  0  0  0  0  0
   53.7084  166.2545   -2.6377 H   0  0  0  0  0  0  0  0  0  0  0  0
   55.4047  166.0775   -3.1850 H   0  0  0  0  0  0  0  0  0  0  0  0
   54.7710  165.0388   -1.8812 H   0  0  0  0  0  0  0  0  0  0  0  0
   54.6791  156.9012   -6.3825 H   0  0  0  0  0  0  0  0  0  0  0  0
   54.2235  155.7682   -5.0807 H   0  0  0  0  0  0  0  0  0  0  0  0
   53.8215  160.2517   -3.6139 H   0  0  0  0  0  0  0  0  0  0  0  0
   54.2538  161.0908   -5.1470 H   0  0  0  0  0  0  0  0  0  0  0  0
   55.3855  163.0493   -1.9636 H   0  0  0  0  0  0  0  0  0  0  0  0
   54.2034  162.0787   -2.8803 H   0  0  0  0  0  0  0  0  0  0  0  0
   54.9285  163.1634   -4.9993 H   0  0  0  0  0  0  0  0  0  0  0  0
   56.0981  164.1708   -4.1076 H   0  0  0  0  0  0  0  0  0  0  0  0
   52.3279  155.7486   -6.5015 H   0  0  0  0  0  0  0  0  0  0  0  0
   52.1224  157.4701   -6.2823 H   0  0  0  0  0  0  0  0  0  0  0  0
   54.5562  159.0500   -6.1795 H   0  0  0  0  0  0  0  0  0  0  0  0
  1  8  1  0  0  0  0
  1 13  1  0  0  0  0
  1 15  2  0  0  0  0
  2  9  1  0  0  0  0
  2 14  1  0  0  0  0
  2 16  2  0  0  0  0
  3  4  1  0  0  0  0
  3  6  1  0  0  0  0
  4 18  1  0  0  0  0
  5  6  1  0  0  0  0
  5 18  1  0  0  0  0
  6 14  1  0  0  0  0
  7 17  1  0  0  0  0
  8 12  1  0  0  0  0
  9 13  1  0  0  0  0
 10 11  1  0  0  0  0
 10 14  1  0  0  0  0
 11 17  1  0  0  0  0
  3 19  1  0  0  0  0
  3 20  1  0  0  0  0
  4 21  1  0  0  0  0
  4 22  1  0  0  0  0
  5 23  1  0  0  0  0
  5 24  1  0  0  0  0
  6 25  1  0  0  0  0
  7 26  1  0  0  0  0
  7 27  1  0  0  0  0
  7 28  1  0  0  0  0
  8 29  1  0  0  0  0
  8 30  1  0  0  0  0
  9 31  1  0  0  0  0
  9 32  1  0  0  0  0
 10 33  1  0  0  0  0
 10 34  1  0  0  0  0
 11 35  1  0  0  0  0
 11 36  1  0  0  0  0
 12 37  1  0  0  0  0
 12 38  1  0  0  0  0
 13 39  1  0  0  0  0
M  END
> <FRED Chemgauss4 score>
-6.073076

$$$$
C94567135	P148238501
  -OEChem-05122015083D

 42 43  0     1  0  0  0  0  0999 V2000
   60.2595  154.8904   -7.5591 C   0  0  0  0  0  0  0  0  0  0  0  0
   61.3889  155.4923   -7.9491 C   0  0  0  0  0  0  0  0  0  0  0  0
   59.0592  156.9586   -7.5448 C   0  0  0  0  0  0  0  0  0  0  0  0
   59.0322  155.6306   -7.3416 C   0  0  0  0  0  0  0  0  0  0  0  0
   61.4121  156.9657   -8.1736 C   0  0  0  0  0  0  0  0  0  0  0  0
   56.6922  155.5853   -6.7103 C   0  0  0  0  0  0  0  0  0  0  0  0
   54.2333  155.1237   -6.5786 C   0  0  0  0  0  0  0  0  0  0  0  0
   53.8657  155.8350   -5.2972 C   0  0  0  0  0  0  0  0  0  0  0  0
   55.6333  154.6179   -6.2836 C   0  0  2  0  0  0  0  0  0  0  0  0
   54.5405  154.9603   -4.2565 C   0  0  2  0  0  0  0  0  0  0  0  0
   60.1448  161.8790   -5.7586 C   0  0  0  0  0  0  0  0  0  0  0  0
   54.8588  155.6901   -2.9663 C   0  0  0  0  0  0  0  0  0  0  0  0
   60.1410  159.0728   -8.1452 C   0  0  0  0  0  0  0  0  0  0  0  0
   60.1525  159.7710   -6.7976 C   0  0  0  0  0  0  0  0  0  0  0  0
   60.2019  157.6291   -7.9486 N   0  0  0  0  0  0  0  0  0  0  0  0
   53.6610  156.2003   -2.3799 N   0  0  0  0  0  0  0  0  0  0  0  0
   57.9101  154.9657   -6.9431 N   0  0  0  0  0  0  0  0  0  0  0  0
   62.4625  157.4951   -8.5324 O   0  0  0  0  0  0  0  0  0  0  0  0
   56.4629  156.7892   -6.8019 O   0  0  0  0  0  0  0  0  0  0  0  0
   55.7555  154.4910   -4.8634 O   0  0  0  0  0  0  0  0  0  0  0  0
   60.1289  161.1790   -6.9951 O   0  0  0  0  0  0  0  0  0  0  0  0
   60.2504  153.8168   -7.3975 H   0  0  0  0  0  0  0  0  0  0  0  0
   62.3043  154.9351   -8.1101 H   0  0  0  0  0  0  0  0  0  0  0  0
   58.1750  157.5718   -7.3992 H   0  0  0  0  0  0  0  0  0  0  0  0
   53.5577  154.2731   -6.7297 H   0  0  0  0  0  0  0  0  0  0  0  0
   54.1692  155.7699   -7.4590 H   0  0  0  0  0  0  0  0  0  0  0  0
   54.2909  156.8458   -5.2995 H   0  0  0  0  0  0  0  0  0  0  0  0
   52.7860  155.9200   -5.1450 H   0  0  0  0  0  0  0  0  0  0  0  0
   55.8345  153.6519   -6.7593 H   0  0  0  0  0  0  0  0  0  0  0  0
   53.9227  154.0800   -4.0417 H   0  0  0  0  0  0  0  0  0  0  0  0
   60.1260  162.9550   -5.9479 H   0  0  0  0  0  0  0  0  0  0  0  0
   61.0452  161.6122   -5.1995 H   0  0  0  0  0  0  0  0  0  0  0  0
   59.2620  161.5977   -5.1795 H   0  0  0  0  0  0  0  0  0  0  0  0
   55.5267  156.5191   -3.1791 H   0  0  0  0  0  0  0  0  0  0  0  0
   55.3271  155.0043   -2.2676 H   0  0  0  0  0  0  0  0  0  0  0  0
   59.2291  159.3046   -8.7045 H   0  0  0  0  0  0  0  0  0  0  0  0
   61.0106  159.3734   -8.7373 H   0  0  0  0  0  0  0  0  0  0  0  0
   61.0690  159.5215   -6.2540 H   0  0  0  0  0  0  0  0  0  0  0  0
   59.2878  159.4863   -6.1893 H   0  0  0  0  0  0  0  0  0  0  0  0
   52.9234  156.5565   -2.9753 H   0  0  0  0  0  0  0  0  0  0  0  0
   53.6320  156.3935   -1.3863 H   0  0  0  0  0  0  0  0  0  0  0  0
   57.9702  153.9599   -6.8095 H   0  0  0  0  0  0  0  0  0  0  0  0
  1  2  2  0  0  0  0
  1  4  1  0  0  0  0
  2  5  1  0  0  0  0
  3  4  2  0  0  0  0
  3 15  1  0  0  0  0
  4 17  1  0  0  0  0
  5 15  1  0  0  0  0
  5 18  2  0  0  0  0
  6  9  1  0  0  0  0
  6 17  1  0  0  0  0
  6 19  2  0  0  0  0
  7  8  1  0  0  0  0
  7  9  1  0  0  0  0
  8 10  1  0  0  0  0
  9 20  1  0  0  0  0
 10 12  1  0  0  0  0
 10 20  1  0  0  0  0
 11 21  1  0  0  0  0
 12 16  1  0  0  0  0
 13 14  1  0  0  0  0
 13 15  1  0  0  0  0
 14 21  1  0  0  0  0
  1 22  1  0  0  0  0
  2 23  1  0  0  0  0
  3 24  1  0  0  0  0
  7 25  1  0  0  0  0
  7 26  1  0  0  0  0
  8 27  1  0  0  0  0
  8 28  1  0  0  0  0
  9 29  1  0  0  0  0
 10 30  1  0  0  0  0
 11 31  1  0  0  0  0
 11 32  1  0  0  0  0
 11 33  1  0  0  0  0
 12 34  1  0  0  0  0
 12 35  1  0  0  0  0
 13 36  1  0  0  0  0
 13 37  1  0  0  0  0
 14 38  1  0  0  0  0
 14 39  1  0  0  0  0
 16 40  1  0  0  0  0
 16 41  1  0  0  0  0
 17 42  1  0  0  0  0
M  END
> <FRED Chemgauss4 score>
-6.069336

$$$$
C05517275	P08195379
  -OEChem-05122015083D

 21 21  0     1  0  0  0  0  0999 V2000
   54.7448  158.3306   -3.9595 C   0  0  0  0  0  0  0  0  0  0  0  0
   53.5521  156.1883   -3.3821 C   0  0  0  0  0  0  0  0  0  0  0  0
   55.8677  156.2516   -4.3297 C   0  0  0  0  0  0  0  0  0  0  0  0
   56.7554  157.3925   -4.7959 C   0  0  0  0  0  0  0  0  0  0  0  0
   54.8495  156.9244   -3.4017 C   0  0  1  0  0  0  0  0  0  0  0  0
   55.8655  158.5143   -4.7599 N   0  0  0  0  0  0  0  0  0  0  0  0
   56.1691  159.7143   -5.3522 N   0  0  0  0  0  0  0  0  0  0  0  0
   51.8284  155.3508   -4.7929 N   0  0  0  0  0  0  0  0  0  0  0  0
   53.0153  156.0389   -4.6465 N   0  0  0  0  0  0  0  0  0  0  0  0
   53.8504  159.1251   -3.7110 O   0  0  0  0  0  0  0  0  0  0  0  0
   53.0696  155.7593   -2.3365 O   0  0  0  0  0  0  0  0  0  0  0  0
   55.3647  155.7932   -5.1912 H   0  0  0  0  0  0  0  0  0  0  0  0
   56.4371  155.4634   -3.8271 H   0  0  0  0  0  0  0  0  0  0  0  0
   57.5774  157.5737   -4.0954 H   0  0  0  0  0  0  0  0  0  0  0  0
   57.1488  157.2302   -5.8036 H   0  0  0  0  0  0  0  0  0  0  0  0
   55.2410  156.9927   -2.3789 H   0  0  0  0  0  0  0  0  0  0  0  0
   55.3153  160.2457   -5.6014 H   0  0  0  0  0  0  0  0  0  0  0  0
   56.6480  159.5804   -6.2607 H   0  0  0  0  0  0  0  0  0  0  0  0
   51.3275  155.7861   -5.5663 H   0  0  0  0  0  0  0  0  0  0  0  0
   51.2736  155.5369   -3.9586 H   0  0  0  0  0  0  0  0  0  0  0  0
   53.4873  156.4297   -5.4559 H   0  0  0  0  0  0  0  0  0  0  0  0
  1  5  1  0  0  0  0
  1  6  1  0  0  0  0
  1 10  2  0  0  0  0
  2  5  1  0  0  0  0
  2  9  1  0  0  0  0
  2 11  2  0  0  0  0
  3  4  1  0  0  0  0
  3  5  1  0  0  0  0
  4  6  1  0  0  0  0
  6  7  1  0  0  0  0
  8  9  1  0  0  0  0
  3 12  1  0  0  0  0
  3 13  1  0  0  0  0
  4 14  1  0  0  0  0
  4 15  1  0  0  0  0
  5 16  1  0  0  0  0
  7 17  1  0  0  0  0
  7 18  1  0  0  0  0
  8 19  1  0  0  0  0
  8 20  1  0  0  0  0
  9 21  1  0  0  0  0
M  END
> <FRED Chemgauss4 score>
-6.068090

$$$$
C50445595	P75433552
  -OEChem-05122015083D

 21 21  0     0  0  0  0  0  0999 V2000
   55.7002  156.0064   -5.4390 C   0  0  0  0  0  0  0  0  0  0  0  0
   54.3621  155.5262   -5.6472 C   0  0  0  0  0  0  0  0  0  0  0  0
   56.0653  156.4452   -4.2316 C   0  0  0  0  0  0  0  0  0  0  0  0
   53.4525  155.5013   -4.6601 C   0  0  0  0  0  0  0  0  0  0  0  0
   53.8614  155.9964   -3.2925 C   0  0  0  0  0  0  0  0  0  0  0  0
   55.6743  156.9481   -1.8880 C   0  0  0  0  0  0  0  0  0  0  0  0
   55.7367  158.4642   -1.9221 C   0  0  0  0  0  0  0  0  0  0  0  0
   55.1825  156.4497   -3.1679 N   0  0  0  0  0  0  0  0  0  0  0  0
   52.1687  155.0596   -4.7889 N   0  0  0  0  0  0  0  0  0  0  0  0
   53.0415  155.9816   -2.3734 O   0  0  0  0  0  0  0  0  0  0  0  0
   54.4427  158.9840   -2.2001 O   0  0  0  0  0  0  0  0  0  0  0  0
   56.3927  156.0033   -6.2723 H   0  0  0  0  0  0  0  0  0  0  0  0
   54.1119  155.1796   -6.6452 H   0  0  0  0  0  0  0  0  0  0  0  0
   57.0671  156.8141   -4.0417 H   0  0  0  0  0  0  0  0  0  0  0  0
   56.6629  156.5141   -1.7079 H   0  0  0  0  0  0  0  0  0  0  0  0
   54.9878  156.6127   -1.1047 H   0  0  0  0  0  0  0  0  0  0  0  0
   56.4113  158.7936   -2.7184 H   0  0  0  0  0  0  0  0  0  0  0  0
   56.0835  158.8744   -0.9680 H   0  0  0  0  0  0  0  0  0  0  0  0
   51.8653  154.7258   -5.6780 H   0  0  0  0  0  0  0  0  0  0  0  0
   51.5726  155.0839   -3.9901 H   0  0  0  0  0  0  0  0  0  0  0  0
   54.5268  159.9509   -2.2129 H   0  0  0  0  0  0  0  0  0  0  0  0
  1  2  1  0  0  0  0
  1  3  2  0  0  0  0
  2  4  2  0  0  0  0
  3  8  1  0  0  0  0
  4  5  1  0  0  0  0
  4  9  1  0  0  0  0
  5  8  1  0  0  0  0
  5 10  2  0  0  0  0
  6  7  1  0  0  0  0
  6  8  1  0  0  0  0
  7 11  1  0  0  0  0
  1 12  1  0  0  0  0
  2 13  1  0  0  0  0
  3 14  1  0  0  0  0
  6 15  1  0  0  0  0
  6 16  1  0  0  0  0
  7 17  1  0  0  0  0
  7 18  1  0  0  0  0
  9 19  1  0  0  0  0
  9 20  1  0  0  0  0
 11 21  1  0  0  0  0
M  END
> <FRED Chemgauss4 score>
-6.061935

$$$$
C36904451	P54858491
  -OEChem-05122015083D

 25 25  0     0  0  0  0  0  0999 V2000
   54.8806  155.3611   -4.3903 C   0  0  0  0  0  0  0  0  0  0  0  0
   53.7425  156.0811   -3.7740 C   0  0  0  0  0  0  0  0  0  0  0  0
   57.7183  155.0966   -6.1483 C   0  0  0  0  0  0  0  0  0  0  0  0
   58.5964  156.2881   -6.5499 C   0  0  0  0  0  0  0  0  0  0  0  0
   56.2323  155.2769   -6.4435 C   0  0  0  0  0  0  0  0  0  0  0  0
   57.2964  157.8441   -5.1433 C   0  0  0  0  0  0  0  0  0  0  0  0
   55.8246  157.4899   -5.3658 C   0  0  0  0  0  0  0  0  0  0  0  0
   58.0694  157.6376   -6.3622 N   0  0  0  0  0  0  0  0  0  0  0  0
   55.5854  156.0439   -5.3772 N   0  0  0  0  0  0  0  0  0  0  0  0
   52.7773  156.4207   -4.6820 N   0  0  0  0  0  0  0  0  0  0  0  0
   55.0862  154.2347   -3.9564 O   0  0  0  0  0  0  0  0  0  0  0  0
   53.7227  156.3177   -2.5778 O   0  0  0  0  0  0  0  0  0  0  0  0
   58.0786  154.2218   -6.7076 H   0  0  0  0  0  0  0  0  0  0  0  0
   57.8693  154.8677   -5.0837 H   0  0  0  0  0  0  0  0  0  0  0  0
   59.5407  156.2206   -5.9664 H   0  0  0  0  0  0  0  0  0  0  0  0
   58.9335  156.1626   -7.6048 H   0  0  0  0  0  0  0  0  0  0  0  0
   56.0534  155.7671   -7.4003 H   0  0  0  0  0  0  0  0  0  0  0  0
   55.7720  154.2891   -6.4966 H   0  0  0  0  0  0  0  0  0  0  0  0
   57.4141  158.8506   -4.7449 H   0  0  0  0  0  0  0  0  0  0  0  0
   57.6872  157.1631   -4.3865 H   0  0  0  0  0  0  0  0  0  0  0  0
   55.2210  157.9371   -4.5938 H   0  0  0  0  0  0  0  0  0  0  0  0
   55.5132  157.8695   -6.3260 H   0  0  0  0  0  0  0  0  0  0  0  0
   58.8430  158.3215   -6.4085 H   0  0  0  0  0  0  0  0  0  0  0  0
   52.9174  156.1625   -5.6533 H   0  0  0  0  0  0  0  0  0  0  0  0
   51.9278  156.9182   -4.4331 H   0  0  0  0  0  0  0  0  0  0  0  0
  1  2  1  0  0  0  0
  1  9  1  0  0  0  0
  1 11  2  0  0  0  0
  2 10  1  0  0  0  0
  2 12  2  0  0  0  0
  3  4  1  0  0  0  0
  3  5  1  0  0  0  0
  4  8  1  0  0  0  0
  5  9  1  0  0  0  0
  6  7  1  0  0  0  0
  6  8  1  0  0  0  0
  7  9  1  0  0  0  0
  3 13  1  0  0  0  0
  3 14  1  0  0  0  0
  4 15  1  0  0  0  0
  4 16  1  0  0  0  0
  5 17  1  0  0  0  0
  5 18  1  0  0  0  0
  6 19  1  0  0  0  0
  6 20  1  0  0  0  0
  7 21  1  0  0  0  0
  7 22  1  0  0  0  0
  8 23  1  0  0  0  0
 10 24  1  0  0  0  0
 10 25  1  0  0  0  0
M  END
> <FRED Chemgauss4 score>
-6.060815

$$$$
C40331928	P61226507
  -OEChem-05122015083D

 39 40  0     1  0  0  0  0  0999 V2000
   55.0001  157.7406   -3.5421 C   0  0  0  0  0  0  0  0  0  0  0  0
   55.9495  158.1270   -4.4881 C   0  0  0  0  0  0  0  0  0  0  0  0
   54.9754  155.5128   -4.4767 C   0  0  0  0  0  0  0  0  0  0  0  0
   54.5131  156.4335   -3.5363 C   0  0  0  0  0  0  0  0  0  0  0  0
   56.4118  157.2064   -5.4284 C   0  0  0  0  0  0  0  0  0  0  0  0
   55.9248  155.8992   -5.4227 C   0  0  0  0  0  0  0  0  0  0  0  0
   58.7353  161.2777   -5.1317 C   0  0  0  0  0  0  0  0  0  0  0  0
   61.6401  163.2857   -4.1063 C   0  0  0  0  0  0  0  0  0  0  0  0
   61.9381  163.0811   -5.5864 C   0  0  0  0  0  0  0  0  0  0  0  0
   60.1506  162.9912   -4.0177 C   0  0  0  0  0  0  0  0  0  0  0  0
   61.0616  161.8907   -5.9496 C   0  0  0  0  0  0  0  0  0  0  0  0
   59.6533  158.5085   -4.9058 C   0  0  0  0  0  0  0  0  0  0  0  0
   58.6480  160.2938   -6.2707 C   0  0  0  0  0  0  0  0  0  0  0  0
   59.9134  161.9980   -5.0549 N   0  0  0  0  0  0  0  0  0  0  0  0
   53.5530  156.0436   -2.5795 N   0  0  0  0  0  0  0  0  0  0  0  0
   58.4658  158.9971   -5.6924 N   0  0  1  0  0  0  0  0  0  0  0  0
   57.7957  161.4069   -4.3453 O   0  0  0  0  0  0  0  0  0  0  0  0
   58.5305  156.6620   -6.8369 O   0  0  0  0  0  0  0  0  0  0  0  0
   56.8947  158.3455   -7.7168 O   0  0  0  0  0  0  0  0  0  0  0  0
   57.6169  157.7646   -6.6000 S   0  0  0  0  0  0  0  0  0  0  0  0
   56.5108  154.5967   -6.6732 Br  0  0  0  0  0  0  0  0  0  0  0  0
   54.6465  158.4661   -2.8139 H   0  0  0  0  0  0  0  0  0  0  0  0
   56.3202  159.1487   -4.4809 H   0  0  0  0  0  0  0  0  0  0  0  0
   54.5897  154.4955   -4.4646 H   0  0  0  0  0  0  0  0  0  0  0  0
   62.2036  162.5572   -3.5110 H   0  0  0  0  0  0  0  0  0  0  0  0
   61.8936  164.2886   -3.7525 H   0  0  0  0  0  0  0  0  0  0  0  0
   61.6232  163.9658   -6.1528 H   0  0  0  0  0  0  0  0  0  0  0  0
   62.9973  162.9023   -5.7898 H   0  0  0  0  0  0  0  0  0  0  0  0
   59.8440  162.6134   -3.0378 H   0  0  0  0  0  0  0  0  0  0  0  0
   59.5505  163.8753   -4.2602 H   0  0  0  0  0  0  0  0  0  0  0  0
   60.7486  161.9018   -6.9971 H   0  0  0  0  0  0  0  0  0  0  0  0
   61.5658  160.9422   -5.7348 H   0  0  0  0  0  0  0  0  0  0  0  0
   59.4486  157.5172   -4.4933 H   0  0  0  0  0  0  0  0  0  0  0  0
   59.8694  159.1946   -4.0823 H   0  0  0  0  0  0  0  0  0  0  0  0
   60.5341  158.4465   -5.5505 H   0  0  0  0  0  0  0  0  0  0  0  0
   59.5739  160.3463   -6.8358 H   0  0  0  0  0  0  0  0  0  0  0  0
   57.8021  160.5698   -6.8934 H   0  0  0  0  0  0  0  0  0  0  0  0
   53.2650  156.6996   -1.8820 H   0  0  0  0  0  0  0  0  0  0  0  0
   53.2468  155.0919   -2.5558 H   0  0  0  0  0  0  0  0  0  0  0  0
  1  2  2  0  0  0  0
  1  4  1  0  0  0  0
  2  5  1  0  0  0  0
  3  4  2  0  0  0  0
  3  6  1  0  0  0  0
  4 15  1  0  0  0  0
  5  6  2  0  0  0  0
  5 20  1  0  0  0  0
  6 21  1  0  0  0  0
  7 13  1  0  0  0  0
  7 14  1  0  0  0  0
  7 17  2  0  0  0  0
  8  9  1  0  0  0  0
  8 10  1  0  0  0  0
  9 11  1  0  0  0  0
 10 14  1  0  0  0  0
 11 14  1  0  0  0  0
 12 16  1  0  0  0  0
 13 16  1  0  0  0  0
 16 20  1  0  0  0  0
 18 20  2  0  0  0  0
 19 20  2  0  0  0  0
  1 22  1  0  0  0  0
  2 23  1  0  0  0  0
  3 24  1  0  0  0  0
  8 25  1  0  0  0  0
  8 26  1  0  0  0  0
  9 27  1  0  0  0  0
  9 28  1  0  0  0  0
 10 29  1  0  0  0  0
 10 30  1  0  0  0  0
 11 31  1  0  0  0  0
 11 32  1  0  0  0  0
 12 33  1  0  0  0  0
 12 34  1  0  0  0  0
 12 35  1  0  0  0  0
 13 36  1  0  0  0  0
 13 37  1  0  0  0  0
 15 38  1  0  0  0  0
 15 39  1  0  0  0  0
M  END
> <FRED Chemgauss4 score>
-6.056145

$$$$
C86661154	P135662458
  -OEChem-05122015083D

 23 23  0     1  0  0  0  0  0999 V2000
   58.6739  155.0842   -7.1798 C   0  0  0  0  0  0  0  0  0  0  0  0
   57.4059  153.4497   -7.0471 C   0  0  0  0  0  0  0  0  0  0  0  0
   57.5550  154.7185   -6.1851 C   0  0  0  0  0  0  0  0  0  0  0  0
   52.9166  155.1276   -3.6339 C   0  0  0  0  0  0  0  0  0  0  0  0
   55.0964  155.0516   -4.9993 C   0  0  0  0  0  0  0  0  0  0  0  0
   53.7633  155.7580   -4.7371 C   0  0  1  0  0  0  0  0  0  0  0  0
   58.8196  153.6343   -7.4540 N   0  0  0  0  0  0  0  0  0  0  0  0
   53.6421  155.1901   -2.4090 O   0  0  0  0  0  0  0  0  0  0  0  0
   53.0041  155.8190   -5.9453 O   0  0  0  0  0  0  0  0  0  0  0  0
   56.1174  155.8252   -6.2939 S   0  0  0  0  0  0  0  0  0  0  0  0
   58.3735  155.6616   -8.0630 H   0  0  0  0  0  0  0  0  0  0  0  0
   59.5601  155.5510   -6.7403 H   0  0  0  0  0  0  0  0  0  0  0  0
   57.2127  152.5255   -6.4948 H   0  0  0  0  0  0  0  0  0  0  0  0
   56.7040  153.5100   -7.8881 H   0  0  0  0  0  0  0  0  0  0  0  0
   57.9047  154.5295   -5.1646 H   0  0  0  0  0  0  0  0  0  0  0  0
   51.9758  155.6657   -3.4830 H   0  0  0  0  0  0  0  0  0  0  0  0
   52.7096  154.0752   -3.8508 H   0  0  0  0  0  0  0  0  0  0  0  0
   54.9137  154.0141   -5.2975 H   0  0  0  0  0  0  0  0  0  0  0  0
   55.6963  155.0410   -4.0834 H   0  0  0  0  0  0  0  0  0  0  0  0
   53.9757  156.7997   -4.4689 H   0  0  0  0  0  0  0  0  0  0  0  0
   59.0195  153.4003   -8.4249 H   0  0  0  0  0  0  0  0  0  0  0  0
   53.0784  154.7832   -1.7328 H   0  0  0  0  0  0  0  0  0  0  0  0
   53.5810  156.2238   -6.6103 H   0  0  0  0  0  0  0  0  0  0  0  0
  1  3  1  0  0  0  0
  1  7  1  0  0  0  0
  2  3  1  0  0  0  0
  2  7  1  0  0  0  0
  3 10  1  0  0  0  0
  4  6  1  0  0  0  0
  4  8  1  0  0  0  0
  5  6  1  0  0  0  0
  5 10  1  0  0  0  0
  6  9  1  0  0  0  0
  1 11  1  0  0  0  0
  1 12  1  0  0  0  0
  2 13  1  0  0  0  0
  2 14  1  0  0  0  0
  3 15  1  0  0  0  0
  4 16  1  0  0  0  0
  4 17  1  0  0  0  0
  5 18  1  0  0  0  0
  5 19  1  0  0  0  0
  6 20  1  0  0  0  0
  7 21  1  0  0  0  0
  8 22  1  0  0  0  0
  9 23  1  0  0  0  0
M  END
> <FRED Chemgauss4 score>
-6.054431

$$$$
C41068534	P62332866
  -OEChem-05122015083D

 33 34  0     1  0  0  0  0  0999 V2000
   56.3382  155.3864   -4.9516 C   0  0  0  0  0  0  0  0  0  0  0  0
   55.6251  154.1913   -6.8132 C   0  0  0  0  0  0  0  0  0  0  0  0
   56.7151  154.6995   -6.1417 C   0  0  0  0  0  0  0  0  0  0  0  0
   54.9740  155.3771   -4.7590 C   0  0  0  0  0  0  0  0  0  0  0  0
   55.2454  163.0133   -4.5841 C   0  0  0  0  0  0  0  0  0  0  0  0
   55.0953  161.8553   -3.6299 C   0  0  0  0  0  0  0  0  0  0  0  0
   54.2255  162.6742   -5.6506 C   0  0  0  0  0  0  0  0  0  0  0  0
   54.8657  160.7003   -4.5894 C   0  0  1  0  0  0  0  0  0  0  0  0
   54.0940  159.5482   -3.9760 C   0  0  0  0  0  0  0  0  0  0  0  0
   53.8861  158.3883   -4.9460 C   0  0  0  0  0  0  0  0  0  0  0  0
   57.9928  154.5609   -6.5646 N   0  0  0  0  0  0  0  0  0  0  0  0
   53.1378  157.3124   -4.3574 N   0  0  0  0  0  0  0  0  0  0  0  0
   52.9406  155.0344   -3.1597 O   0  0  0  0  0  0  0  0  0  0  0  0
   54.7911  156.5944   -2.4769 O   0  0  0  0  0  0  0  0  0  0  0  0
   54.1321  161.2427   -5.7005 O   0  0  0  0  0  0  0  0  0  0  0  0
   54.1543  154.5425   -6.0095 S   0  0  0  0  0  0  0  0  0  0  0  0
   53.9252  156.0431   -3.5016 S   0  0  0  0  0  0  0  0  0  0  0  0
   57.0287  155.8647   -4.2681 H   0  0  0  0  0  0  0  0  0  0  0  0
   55.6152  153.6293   -7.7373 H   0  0  0  0  0  0  0  0  0  0  0  0
   55.0729  163.9894   -4.1233 H   0  0  0  0  0  0  0  0  0  0  0  0
   56.2532  163.0115   -5.0159 H   0  0  0  0  0  0  0  0  0  0  0  0
   55.9668  161.7067   -2.9864 H   0  0  0  0  0  0  0  0  0  0  0  0
   54.2189  162.0169   -2.9906 H   0  0  0  0  0  0  0  0  0  0  0  0
   53.2355  163.0630   -5.3895 H   0  0  0  0  0  0  0  0  0  0  0  0
   54.5035  163.0603   -6.6352 H   0  0  0  0  0  0  0  0  0  0  0  0
   55.8233  160.3366   -4.9809 H   0  0  0  0  0  0  0  0  0  0  0  0
   53.1107  159.9119   -3.6496 H   0  0  0  0  0  0  0  0  0  0  0  0
   54.6182  159.1934   -3.0784 H   0  0  0  0  0  0  0  0  0  0  0  0
   53.3254  158.7254   -5.8235 H   0  0  0  0  0  0  0  0  0  0  0  0
   54.8434  157.9829   -5.2884 H   0  0  0  0  0  0  0  0  0  0  0  0
   58.7824  154.9925   -6.0651 H   0  0  0  0  0  0  0  0  0  0  0  0
   58.2253  154.0988   -7.4543 H   0  0  0  0  0  0  0  0  0  0  0  0
   52.1446  157.4975   -4.1008 H   0  0  0  0  0  0  0  0  0  0  0  0
  1  3  1  0  0  0  0
  1  4  2  0  0  0  0
  2  3  2  0  0  0  0
  2 16  1  0  0  0  0
  3 11  1  0  0  0  0
  4 16  1  0  0  0  0
  4 17  1  0  0  0  0
  5  6  1  0  0  0  0
  5  7  1  0  0  0  0
  6  8  1  0  0  0  0
  7 15  1  0  0  0  0
  8  9  1  0  0  0  0
  8 15  1  0  0  0  0
  9 10  1  0  0  0  0
 10 12  1  0  0  0  0
 12 17  1  0  0  0  0
 13 17  2  0  0  0  0
 14 17  2  0  0  0  0
  1 18  1  0  0  0  0
  2 19  1  0  0  0  0
  5 20  1  0  0  0  0
  5 21  1  0  0  0  0
  6 22  1  0  0  0  0
  6 23  1  0  0  0  0
  7 24  1  0  0  0  0
  7 25  1  0  0  0  0
  8 26  1  0  0  0  0
  9 27  1  0  0  0  0
  9 28  1  0  0  0  0
 10 29  1  0  0  0  0
 10 30  1  0  0  0  0
 11 31  1  0  0  0  0
 11 32  1  0  0  0  0
 12 33  1  0  0  0  0
M  END
> <FRED Chemgauss4 score>
-6.053163

$$$$
C85836742	P134413409
  -OEChem-05122015083D

 31 31  0     1  0  0  0  0  0999 V2000
   61.3496  156.8776   -8.9270 C   0  0  0  0  0  0  0  0  0  0  0  0
   54.4838  154.9232   -5.9318 C   0  0  0  0  0  0  0  0  0  0  0  0
   55.6215  155.0930   -6.6895 C   0  0  0  0  0  0  0  0  0  0  0  0
   55.9290  156.1958   -4.7649 C   0  0  0  0  0  0  0  0  0  0  0  0
   54.6783  155.6207   -4.7142 C   0  0  0  0  0  0  0  0  0  0  0  0
   52.4049  154.9447   -3.8385 C   0  0  0  0  0  0  0  0  0  0  0  0
   60.0186  156.4545   -8.4709 C   0  0  0  0  0  0  0  0  0  0  0  0
   60.0888  155.5496   -7.2399 C   0  0  0  0  0  0  0  0  0  0  0  0
   58.7087  155.0888   -6.7606 C   0  0  0  0  0  0  0  0  0  0  0  0
   57.8178  156.2832   -6.4197 C   0  0  0  0  0  0  0  0  0  0  0  0
   53.7196  155.7139   -3.5965 C   0  0  2  0  0  0  0  0  0  0  0  0
   62.3999  157.2129   -9.2886 N   0  0  0  0  0  0  0  0  0  0  0  0
   56.4930  155.8685   -5.9703 N   0  0  0  0  0  0  0  0  0  0  0  0
   53.4044  157.0932   -3.2394 N   0  0  0  0  0  0  0  0  0  0  0  0
   53.6114  154.3572   -6.2280 H   0  0  0  0  0  0  0  0  0  0  0  0
   55.8797  154.7299   -7.6752 H   0  0  0  0  0  0  0  0  0  0  0  0
   56.4620  156.8073   -4.0486 H   0  0  0  0  0  0  0  0  0  0  0  0
   51.9137  155.3060   -4.7486 H   0  0  0  0  0  0  0  0  0  0  0  0
   52.5776  153.8684   -3.9505 H   0  0  0  0  0  0  0  0  0  0  0  0
   51.7066  155.0734   -3.0038 H   0  0  0  0  0  0  0  0  0  0  0  0
   59.4883  155.9444   -9.2830 H   0  0  0  0  0  0  0  0  0  0  0  0
   59.4315  157.3457   -8.2197 H   0  0  0  0  0  0  0  0  0  0  0  0
   60.5772  156.1058   -6.4300 H   0  0  0  0  0  0  0  0  0  0  0  0
   60.7173  154.6752   -7.4512 H   0  0  0  0  0  0  0  0  0  0  0  0
   58.8107  154.4447   -5.8789 H   0  0  0  0  0  0  0  0  0  0  0  0
   58.2321  154.4814   -7.5402 H   0  0  0  0  0  0  0  0  0  0  0  0
   58.2640  156.8919   -5.6242 H   0  0  0  0  0  0  0  0  0  0  0  0
   57.6845  156.9361   -7.2905 H   0  0  0  0  0  0  0  0  0  0  0  0
   54.1528  155.2934   -2.6651 H   0  0  0  0  0  0  0  0  0  0  0  0
   54.1355  157.7702   -3.2876 H   0  0  0  0  0  0  0  0  0  0  0  0
   52.5419  157.2723   -2.7713 H   0  0  0  0  0  0  0  0  0  0  0  0
  1  7  1  0  0  0  0
  1 12  3  0  0  0  0
  2  3  2  0  0  0  0
  2  5  1  0  0  0  0
  3 13  1  0  0  0  0
  4  5  2  0  0  0  0
  4 13  1  0  0  0  0
  5 11  1  0  0  0  0
  6 11  1  0  0  0  0
  7  8  1  0  0  0  0
  8  9  1  0  0  0  0
  9 10  1  0  0  0  0
 10 13  1  0  0  0  0
 11 14  1  0  0  0  0
  2 15  1  0  0  0  0
  3 16  1  0  0  0  0
  4 17  1  0  0  0  0
  6 18  1  0  0  0  0
  6 19  1  0  0  0  0
  6 20  1  0  0  0  0
  7 21  1  0  0  0  0
  7 22  1  0  0  0  0
  8 23  1  0  0  0  0
  8 24  1  0  0  0  0
  9 25  1  0  0  0  0
  9 26  1  0  0  0  0
 10 27  1  0  0  0  0
 10 28  1  0  0  0  0
 11 29  1  0  0  0  0
 14 30  1  0  0  0  0
 14 31  1  0  0  0  0
M  END
> <FRED Chemgauss4 score>
-6.052084

$$$$
C87226357	P136491744
  -OEChem-05122015083D

 30 31  0     1  0  0  0  0  0999 V2000
   55.4010  158.2796   -2.5761 C   0  0  0  0  0  0  0  0  0  0  0  0
   54.1811  156.6637   -3.0006 C   0  0  0  0  0  0  0  0  0  0  0  0
   56.9484  160.8233   -3.6920 C   0  0  0  0  0  0  0  0  0  0  0  0
   57.2880  159.9972   -2.4745 C   0  0  0  0  0  0  0  0  0  0  0  0
   55.7058  161.5477   -3.2314 C   0  0  0  0  0  0  0  0  0  0  0  0
   55.9068  159.5855   -1.9493 C   0  0  2  0  0  0  0  0  0  0  0  0
   55.8723  159.5031   -0.4212 C   0  0  0  0  0  0  0  0  0  0  0  0
   53.0980  154.9566   -4.5231 C   0  0  0  0  0  0  0  0  0  0  0  0
   53.1472  155.6279   -3.1286 C   0  0  1  0  0  0  0  0  0  0  0  0
   54.1937  157.7348   -2.2481 N   0  0  0  0  0  0  0  0  0  0  0  0
   56.1170  157.6040   -3.4798 N   0  0  0  0  0  0  0  0  0  0  0  0
   53.2715  154.5868   -2.1072 N   0  0  0  0  0  0  0  0  0  0  0  0
   55.2919  156.5095   -3.7678 O   0  0  0  0  0  0  0  0  0  0  0  0
   55.0187  160.6609   -2.3375 O   0  0  0  0  0  0  0  0  0  0  0  0
   52.8610  155.9251   -5.5398 O   0  0  0  0  0  0  0  0  0  0  0  0
   57.7484  161.5025   -3.9981 H   0  0  0  0  0  0  0  0  0  0  0  0
   56.7134  160.1676   -4.5384 H   0  0  0  0  0  0  0  0  0  0  0  0
   57.9463  159.1530   -2.7039 H   0  0  0  0  0  0  0  0  0  0  0  0
   57.8054  160.6364   -1.7474 H   0  0  0  0  0  0  0  0  0  0  0  0
   55.9590  162.4545   -2.6717 H   0  0  0  0  0  0  0  0  0  0  0  0
   55.0456  161.8216   -4.0590 H   0  0  0  0  0  0  0  0  0  0  0  0
   56.2338  160.4365    0.0080 H   0  0  0  0  0  0  0  0  0  0  0  0
   56.5061  158.6857   -0.0803 H   0  0  0  0  0  0  0  0  0  0  0  0
   54.8520  159.3275   -0.0831 H   0  0  0  0  0  0  0  0  0  0  0  0
   54.0589  154.4771   -4.7400 H   0  0  0  0  0  0  0  0  0  0  0  0
   52.3078  154.2000   -4.5781 H   0  0  0  0  0  0  0  0  0  0  0  0
   52.1300  156.0396   -2.9428 H   0  0  0  0  0  0  0  0  0  0  0  0
   52.8788  153.6933   -2.3028 H   0  0  0  0  0  0  0  0  0  0  0  0
   53.5545  154.8623   -1.1935 H   0  0  0  0  0  0  0  0  0  0  0  0
   52.8417  155.4441   -6.3821 H   0  0  0  0  0  0  0  0  0  0  0  0
  1  6  1  0  0  0  0
  1 10  1  0  0  0  0
  1 11  2  0  0  0  0
  2  9  1  0  0  0  0
  2 10  2  0  0  0  0
  2 13  1  0  0  0  0
  3  4  1  0  0  0  0
  3  5  1  0  0  0  0
  4  6  1  0  0  0  0
  5 14  1  0  0  0  0
  6  7  1  0  0  0  0
  6 14  1  0  0  0  0
  8  9  1  0  0  0  0
  8 15  1  0  0  0  0
  9 12  1  0  0  0  0
 11 13  1  0  0  0  0
  3 16  1  0  0  0  0
  3 17  1  0  0  0  0
  4 18  1  0  0  0  0
  4 19  1  0  0  0  0
  5 20  1  0  0  0  0
  5 21  1  0  0  0  0
  7 22  1  0  0  0  0
  7 23  1  0  0  0  0
  7 24  1  0  0  0  0
  8 25  1  0  0  0  0
  8 26  1  0  0  0  0
  9 27  1  0  0  0  0
 12 28  1  0  0  0  0
 12 29  1  0  0  0  0
 15 30  1  0  0  0  0
M  END
> <FRED Chemgauss4 score>
-6.042432

$$$$
C86093116	P134836689
  -OEChem-05122015083D

 27 27  0     1  0  0  0  0  0999 V2000
   58.7166  159.7154   -1.4414 C   0  0  0  0  0  0  0  0  0  0  0  0
   57.6630  159.3326   -1.0114 C   0  0  0  0  0  0  0  0  0  0  0  0
   54.5299  155.1590   -4.6413 C   0  0  0  0  0  0  0  0  0  0  0  0
   53.8763  155.4011   -5.7820 C   0  0  0  0  0  0  0  0  0  0  0  0
   54.8953  156.9733   -3.0867 C   0  0  0  0  0  0  0  0  0  0  0  0
   55.4605  157.1522   -5.5298 C   0  0  0  0  0  0  0  0  0  0  0  0
   55.4575  156.2680   -4.2807 C   0  0  2  0  0  0  0  0  0  0  0  0
   54.2492  156.7216   -6.3685 C   0  0  2  0  0  0  0  0  0  0  0  0
   56.3736  158.8638   -0.4804 C   0  0  0  0  0  0  0  0  0  0  0  0
   55.2778  158.8833   -1.5414 C   0  0  0  0  0  0  0  0  0  0  0  0
   53.1516  157.6780   -6.2704 N   0  0  0  0  0  0  0  0  0  0  0  0
   55.6412  158.0604   -2.6727 N   0  0  0  0  0  0  0  0  0  0  0  0
   53.8590  156.5647   -2.5760 O   0  0  0  0  0  0  0  0  0  0  0  0
   59.6509  160.0554   -1.8229 H   0  0  0  0  0  0  0  0  0  0  0  0
   54.3967  154.2656   -4.0474 H   0  0  0  0  0  0  0  0  0  0  0  0
   53.1476  154.7308   -6.2156 H   0  0  0  0  0  0  0  0  0  0  0  0
   55.4659  158.2241   -5.2979 H   0  0  0  0  0  0  0  0  0  0  0  0
   56.3757  156.9570   -6.1057 H   0  0  0  0  0  0  0  0  0  0  0  0
   56.4602  155.9017   -4.0423 H   0  0  0  0  0  0  0  0  0  0  0  0
   54.5422  156.6120   -7.4183 H   0  0  0  0  0  0  0  0  0  0  0  0
   56.0819  159.4802    0.3783 H   0  0  0  0  0  0  0  0  0  0  0  0
   56.4930  157.8378   -0.1129 H   0  0  0  0  0  0  0  0  0  0  0  0
   54.3266  158.5312   -1.1273 H   0  0  0  0  0  0  0  0  0  0  0  0
   55.1265  159.9092   -1.8927 H   0  0  0  0  0  0  0  0  0  0  0  0
   52.2244  157.3482   -6.4334 H   0  0  0  0  0  0  0  0  0  0  0  0
   53.3755  158.6499   -6.2480 H   0  0  0  0  0  0  0  0  0  0  0  0
   56.4850  158.2923   -3.1879 H   0  0  0  0  0  0  0  0  0  0  0  0
  1  2  3  0  0  0  0
  2  9  1  0  0  0  0
  3  4  2  0  0  0  0
  3  7  1  0  0  0  0
  4  8  1  0  0  0  0
  5  7  1  0  0  0  0
  5 12  1  0  0  0  0
  5 13  2  0  0  0  0
  6  7  1  0  0  0  0
  6  8  1  0  0  0  0
  8 11  1  0  0  0  0
  9 10  1  0  0  0  0
 10 12  1  0  0  0  0
  1 14  1  0  0  0  0
  3 15  1  0  0  0  0
  4 16  1  0  0  0  0
  6 17  1  0  0  0  0
  6 18  1  0  0  0  0
  7 19  1  0  0  0  0
  8 20  1  0  0  0  0
  9 21  1  0  0  0  0
  9 22  1  0  0  0  0
 10 23  1  0  0  0  0
 10 24  1  0  0  0  0
 11 25  1  0  0  0  0
 11 26  1  0  0  0  0
 12 27  1  0  0  0  0
M  END
> <FRED Chemgauss4 score>
-6.037896

$$$$
C76135993	P118750968
  -OEChem-05122015083D

 22 22  0     1  0  0  0  0  0999 V2000
   54.6130  154.4103   -6.1980 C   0  0  0  0  0  0  0  0  0  0  0  0
   55.6535  153.7694   -6.8613 C   0  0  0  0  0  0  0  0  0  0  0  0
   56.1711  156.0369   -5.4344 C   0  0  0  0  0  0  0  0  0  0  0  0
   54.8684  155.5662   -5.4687 C   0  0  0  0  0  0  0  0  0  0  0  0
   56.9210  154.3206   -6.7648 C   0  0  0  0  0  0  0  0  0  0  0  0
   53.0695  155.4007   -3.6933 C   0  0  0  0  0  0  0  0  0  0  0  0
   53.7768  156.2741   -4.7478 C   0  0  2  0  0  0  0  0  0  0  0  0
   57.2077  155.4418   -6.0659 N   0  0  0  0  0  0  0  0  0  0  0  0
   57.9704  153.6560   -7.4470 N   0  0  0  0  0  0  0  0  0  0  0  0
   52.7753  156.8082   -5.6611 N   0  0  0  0  0  0  0  0  0  0  0  0
   52.3629  156.2234   -2.7705 O   0  0  0  0  0  0  0  0  0  0  0  0
   53.6074  154.0025   -6.2544 H   0  0  0  0  0  0  0  0  0  0  0  0
   55.4632  152.8664   -7.4325 H   0  0  0  0  0  0  0  0  0  0  0  0
   56.4312  156.9342   -4.8814 H   0  0  0  0  0  0  0  0  0  0  0  0
   52.3397  154.7401   -4.1742 H   0  0  0  0  0  0  0  0  0  0  0  0
   53.7817  154.7869   -3.1312 H   0  0  0  0  0  0  0  0  0  0  0  0
   54.1680  157.1681   -4.2264 H   0  0  0  0  0  0  0  0  0  0  0  0
   57.7705  152.8040   -7.9238 H   0  0  0  0  0  0  0  0  0  0  0  0
   58.8998  154.0044   -7.3557 H   0  0  0  0  0  0  0  0  0  0  0  0
   53.0820  157.1685   -6.5405 H   0  0  0  0  0  0  0  0  0  0  0  0
   51.8585  156.9843   -5.3065 H   0  0  0  0  0  0  0  0  0  0  0  0
   51.9397  155.6261   -2.1339 H   0  0  0  0  0  0  0  0  0  0  0  0
  1  2  1  0  0  0  0
  1  4  2  0  0  0  0
  2  5  2  0  0  0  0
  3  4  1  0  0  0  0
  3  8  2  0  0  0  0
  4  7  1  0  0  0  0
  5  8  1  0  0  0  0
  5  9  1  0  0  0  0
  6  7  1  0  0  0  0
  6 11  1  0  0  0  0
  7 10  1  0  0  0  0
  1 12  1  0  0  0  0
  2 13  1  0  0  0  0
  3 14  1  0  0  0  0
  6 15  1  0  0  0  0
  6 16  1  0  0  0  0
  7 17  1  0  0  0  0
  9 18  1  0  0  0  0
  9 19  1  0  0  0  0
 10 20  1  0  0  0  0
 10 21  1  0  0  0  0
 11 22  1  0  0  0  0
M  END
> <FRED Chemgauss4 score>
-6.036719

$$$$
C61707657	P94524272
  -OEChem-05122015083D

 29 29  0     1  0  0  0  0  0999 V2000
   56.3113  155.7975   -6.2463 C   0  0  0  0  0  0  0  0  0  0  0  0
   55.7621  155.2671   -4.9742 C   0  0  0  0  0  0  0  0  0  0  0  0
   58.7701  153.3500   -7.4466 C   0  0  0  0  0  0  0  0  0  0  0  0
   57.6449  153.7236   -6.4906 C   0  0  0  0  0  0  0  0  0  0  0  0
   58.5066  155.7286   -7.5105 C   0  0  0  0  0  0  0  0  0  0  0  0
   59.5743  154.6422   -7.5538 C   0  0  1  0  0  0  0  0  0  0  0  0
   53.8009  156.2363   -2.4985 C   0  0  0  0  0  0  0  0  0  0  0  0
   55.2818  155.9262   -2.6387 C   0  0  0  0  0  0  0  0  0  0  0  0
   57.4194  155.1397   -6.7299 N   0  0  0  0  0  0  0  0  0  0  0  0
   53.5059  157.6152   -2.7820 N   0  0  0  0  0  0  0  0  0  0  0  0
   55.7705  156.2086   -3.9693 N   0  0  0  0  0  0  0  0  0  0  0  0
   55.7350  156.7602   -6.7324 O   0  0  0  0  0  0  0  0  0  0  0  0
   55.3654  154.1138   -4.9085 O   0  0  0  0  0  0  0  0  0  0  0  0
   60.4280  154.7836   -6.4235 O   0  0  0  0  0  0  0  0  0  0  0  0
   59.3504  152.5017   -7.0726 H   0  0  0  0  0  0  0  0  0  0  0  0
   58.3503  153.0928   -8.4264 H   0  0  0  0  0  0  0  0  0  0  0  0
   56.7287  153.1495   -6.6582 H   0  0  0  0  0  0  0  0  0  0  0  0
   57.9477  153.6059   -5.4442 H   0  0  0  0  0  0  0  0  0  0  0  0
   58.8424  156.6588   -7.0430 H   0  0  0  0  0  0  0  0  0  0  0  0
   58.1096  155.9383   -8.5096 H   0  0  0  0  0  0  0  0  0  0  0  0
   60.1895  154.6900   -8.4562 H   0  0  0  0  0  0  0  0  0  0  0  0
   53.4432  156.0269   -1.4854 H   0  0  0  0  0  0  0  0  0  0  0  0
   53.2220  155.6324   -3.2042 H   0  0  0  0  0  0  0  0  0  0  0  0
   55.8647  156.5403   -1.9453 H   0  0  0  0  0  0  0  0  0  0  0  0
   55.4902  154.8723   -2.4284 H   0  0  0  0  0  0  0  0  0  0  0  0
   54.1412  158.3290   -2.4628 H   0  0  0  0  0  0  0  0  0  0  0  0
   52.5855  157.8633   -3.1083 H   0  0  0  0  0  0  0  0  0  0  0  0
   56.1336  157.1358   -4.1706 H   0  0  0  0  0  0  0  0  0  0  0  0
   60.9121  155.6159   -6.5432 H   0  0  0  0  0  0  0  0  0  0  0  0
  1  2  1  0  0  0  0
  1  9  1  0  0  0  0
  1 12  2  0  0  0  0
  2 11  1  0  0  0  0
  2 13  2  0  0  0  0
  3  4  1  0  0  0  0
  3  6  1  0  0  0  0
  4  9  1  0  0  0  0
  5  6  1  0  0  0  0
  5  9  1  0  0  0  0
  6 14  1  0  0  0  0
  7  8  1  0  0  0  0
  7 10  1  0  0  0  0
  8 11  1  0  0  0  0
  3 15  1  0  0  0  0
  3 16  1  0  0  0  0
  4 17  1  0  0  0  0
  4 18  1  0  0  0  0
  5 19  1  0  0  0  0
  5 20  1  0  0  0  0
  6 21  1  0  0  0  0
  7 22  1  0  0  0  0
  7 23  1  0  0  0  0
  8 24  1  0  0  0  0
  8 25  1  0  0  0  0
 10 26  1  0  0  0  0
 10 27  1  0  0  0  0
 11 28  1  0  0  0  0
 14 29  1  0  0  0  0
M  END
> <FRED Chemgauss4 score>
-6.036457

$$$$
C91671606	P143506820
  -OEChem-05122015083D

 39 40  0     1  0  0  0  0  0999 V2000
   55.0367  154.6035   -5.4491 C   0  0  0  0  0  0  0  0  0  0  0  0
   56.0972  155.0948   -6.2022 C   0  0  0  0  0  0  0  0  0  0  0  0
   54.2089  155.4869   -4.7653 C   0  0  0  0  0  0  0  0  0  0  0  0
   56.2858  156.4669   -6.2389 C   0  0  0  0  0  0  0  0  0  0  0  0
   54.4821  156.8415   -4.8662 C   0  0  0  0  0  0  0  0  0  0  0  0
   53.1000  154.9623   -3.9804 C   0  0  0  0  0  0  0  0  0  0  0  0
   56.4491  159.1944   -0.3985 C   0  0  0  0  0  0  0  0  0  0  0  0
   55.4011  160.3916   -2.2057 C   0  0  0  0  0  0  0  0  0  0  0  0
   56.2837  157.9032   -1.1938 C   0  0  0  0  0  0  0  0  0  0  0  0
   55.2617  159.0690   -2.9690 C   0  0  2  0  0  0  0  0  0  0  0  0
   57.4142  157.0293   -7.0373 C   0  0  0  0  0  0  0  0  0  0  0  0
   56.7243  161.5840   -0.5774 C   0  0  0  0  0  0  0  0  0  0  0  0
   54.0187  159.0720   -3.8484 C   0  0  0  0  0  0  0  0  0  0  0  0
   55.5028  157.3562   -5.5880 N   0  0  0  0  0  0  0  0  0  0  0  0
   56.5724  160.3334   -1.3184 N   0  0  1  0  0  0  0  0  0  0  0  0
   52.1463  154.2316   -4.6502 N   0  0  0  0  0  0  0  0  0  0  0  0
   53.6554  157.7344   -4.1823 N   0  0  0  0  0  0  0  0  0  0  0  0
   55.1381  157.9843   -2.0421 O   0  0  0  0  0  0  0  0  0  0  0  0
   53.0025  155.2138   -2.3282 S   0  0  0  0  0  0  0  0  0  0  0  0
   54.8656  153.5312   -5.4026 H   0  0  0  0  0  0  0  0  0  0  0  0
   56.7496  154.4162   -6.7410 H   0  0  0  0  0  0  0  0  0  0  0  0
   55.5824  159.3302    0.2616 H   0  0  0  0  0  0  0  0  0  0  0  0
   57.3444  159.1136    0.2285 H   0  0  0  0  0  0  0  0  0  0  0  0
   55.5163  161.2122   -2.9240 H   0  0  0  0  0  0  0  0  0  0  0  0
   54.4930  160.5821   -1.6179 H   0  0  0  0  0  0  0  0  0  0  0  0
   57.1724  157.6829   -1.7981 H   0  0  0  0  0  0  0  0  0  0  0  0
   56.1321  157.0618   -0.5103 H   0  0  0  0  0  0  0  0  0  0  0  0
   56.1400  158.8948   -3.6038 H   0  0  0  0  0  0  0  0  0  0  0  0
   57.0891  157.2352   -8.0641 H   0  0  0  0  0  0  0  0  0  0  0  0
   57.7872  157.9623   -6.5960 H   0  0  0  0  0  0  0  0  0  0  0  0
   58.2618  156.3329   -7.0728 H   0  0  0  0  0  0  0  0  0  0  0  0
   56.8151  162.4234   -1.2717 H   0  0  0  0  0  0  0  0  0  0  0  0
   57.6203  161.5462    0.0481 H   0  0  0  0  0  0  0  0  0  0  0  0
   55.8554  161.7507    0.0648 H   0  0  0  0  0  0  0  0  0  0  0  0
   54.2327  159.6201   -4.7582 H   0  0  0  0  0  0  0  0  0  0  0  0
   53.2024  159.5380   -3.3101 H   0  0  0  0  0  0  0  0  0  0  0  0
   52.1904  154.0581   -5.6494 H   0  0  0  0  0  0  0  0  0  0  0  0
   51.3471  153.8446   -4.1592 H   0  0  0  0  0  0  0  0  0  0  0  0
   52.7325  157.3889   -3.9094 H   0  0  0  0  0  0  0  0  0  0  0  0
  1  2  2  0  0  0  0
  1  3  1  0  0  0  0
  2  4  1  0  0  0  0
  3  5  2  0  0  0  0
  3  6  1  0  0  0  0
  4 11  1  0  0  0  0
  4 14  2  0  0  0  0
  5 14  1  0  0  0  0
  5 17  1  0  0  0  0
  6 16  1  0  0  0  0
  6 19  2  0  0  0  0
  7  9  1  0  0  0  0
  7 15  1  0  0  0  0
  8 10  1  0  0  0  0
  8 15  1  0  0  0  0
  9 18  1  0  0  0  0
 10 13  1  0  0  0  0
 10 18  1  0  0  0  0
 12 15  1  0  0  0  0
 13 17  1  0  0  0  0
  1 20  1  0  0  0  0
  2 21  1  0  0  0  0
  7 22  1  0  0  0  0
  7 23  1  0  0  0  0
  8 24  1  0  0  0  0
  8 25  1  0  0  0  0
  9 26  1  0  0  0  0
  9 27  1  0  0  0  0
 10 28  1  0  0  0  0
 11 29  1  0  0  0  0
 11 30  1  0  0  0  0
 11 31  1  0  0  0  0
 12 32  1  0  0  0  0
 12 33  1  0  0  0  0
 12 34  1  0  0  0  0
 13 35  1  0  0  0  0
 13 36  1  0  0  0  0
 16 37  1  0  0  0  0
 16 38  1  0  0  0  0
 17 39  1  0  0  0  0
M  END
> <FRED Chemgauss4 score>
-6.035112

$$$$
C82410506	P128782164
  -OEChem-05122015083D

 19 19  0     1  0  0  0  0  0999 V2000
   55.6422  153.7342   -6.8221 C   0  0  0  0  0  0  0  0  0  0  0  0
   55.4396  153.1710   -5.5815 C   0  0  0  0  0  0  0  0  0  0  0  0
   54.6460  155.6650   -6.1084 C   0  0  0  0  0  0  0  0  0  0  0  0
   54.4427  155.1016   -4.8679 C   0  0  0  0  0  0  0  0  0  0  0  0
   54.6564  156.0750   -2.5415 C   0  0  0  0  0  0  0  0  0  0  0  0
   53.7611  155.8885   -3.7694 C   0  0  1  0  0  0  0  0  0  0  0  0
   55.2491  154.9913   -7.1079 N   0  0  0  0  0  0  0  0  0  0  0  0
   54.8362  153.8446   -4.5821 N   0  0  0  0  0  0  0  0  0  0  0  0
   53.3002  157.1680   -4.2648 N   0  0  0  0  0  0  0  0  0  0  0  0
   54.6587  154.8743   -1.7760 O   0  0  0  0  0  0  0  0  0  0  0  0
   56.1270  153.1923   -7.6247 H   0  0  0  0  0  0  0  0  0  0  0  0
   55.7559  152.1609   -5.3526 H   0  0  0  0  0  0  0  0  0  0  0  0
   54.3328  156.6750   -6.3453 H   0  0  0  0  0  0  0  0  0  0  0  0
   55.6906  156.2802   -2.8389 H   0  0  0  0  0  0  0  0  0  0  0  0
   54.3071  156.8912   -1.8998 H   0  0  0  0  0  0  0  0  0  0  0  0
   52.8496  155.3639   -3.4563 H   0  0  0  0  0  0  0  0  0  0  0  0
   53.1298  157.9064   -3.6075 H   0  0  0  0  0  0  0  0  0  0  0  0
   52.9698  157.2281   -5.2101 H   0  0  0  0  0  0  0  0  0  0  0  0
   55.2344  155.0337   -1.0116 H   0  0  0  0  0  0  0  0  0  0  0  0
  1  2  1  0  0  0  0
  1  7  2  0  0  0  0
  2  8  2  0  0  0  0
  3  4  2  0  0  0  0
  3  7  1  0  0  0  0
  4  6  1  0  0  0  0
  4  8  1  0  0  0  0
  5  6  1  0  0  0  0
  5 10  1  0  0  0  0
  6  9  1  0  0  0  0
  1 11  1  0  0  0  0
  2 12  1  0  0  0  0
  3 13  1  0  0  0  0
  5 14  1  0  0  0  0
  5 15  1  0  0  0  0
  6 16  1  0  0  0  0
  9 17  1  0  0  0  0
  9 18  1  0  0  0  0
 10 19  1  0  0  0  0
M  END
> <FRED Chemgauss4 score>
-6.032450

$$$$
C98352729	P156427866
  -OEChem-05122015083D

 29 30  0     1  0  0  0  0  0999 V2000
   55.6684  158.4854   -2.0322 C   0  0  0  0  0  0  0  0  0  0  0  0
   54.6933  157.0024   -3.0951 C   0  0  0  0  0  0  0  0  0  0  0  0
   56.8242  161.6367   -2.0016 C   0  0  0  0  0  0  0  0  0  0  0  0
   58.1788  162.2973   -2.1073 C   0  0  0  0  0  0  0  0  0  0  0  0
   59.1509  161.1407   -1.9074 C   0  0  0  0  0  0  0  0  0  0  0  0
   58.3967  160.1828   -1.0072 C   0  0  0  0  0  0  0  0  0  0  0  0
   53.8915  155.8521   -5.1989 C   0  0  0  0  0  0  0  0  0  0  0  0
   55.9682  159.4999   -0.9668 C   0  0  0  0  0  0  0  0  0  0  0  0
   53.8156  155.9688   -3.6603 C   0  0  2  0  0  0  0  0  0  0  0  0
   54.5409  157.7172   -2.0090 N   0  0  0  0  0  0  0  0  0  0  0  0
   56.4910  158.2787   -3.0649 N   0  0  0  0  0  0  0  0  0  0  0  0
   57.0175  160.4117   -1.3674 N   0  0  0  0  0  0  0  0  0  0  0  0
   52.4167  156.1350   -3.2704 N   0  0  0  0  0  0  0  0  0  0  0  0
   55.7743  162.1394   -2.3733 O   0  0  0  0  0  0  0  0  0  0  0  0
   55.8318  157.2746   -3.7852 O   0  0  0  0  0  0  0  0  0  0  0  0
   58.3083  162.7742   -3.0817 H   0  0  0  0  0  0  0  0  0  0  0  0
   58.2712  163.0402   -1.3089 H   0  0  0  0  0  0  0  0  0  0  0  0
   59.3500  160.6618   -2.8745 H   0  0  0  0  0  0  0  0  0  0  0  0
   60.1092  161.4561   -1.4856 H   0  0  0  0  0  0  0  0  0  0  0  0
   58.6759  159.1406   -1.1857 H   0  0  0  0  0  0  0  0  0  0  0  0
   58.5233  160.4297    0.0518 H   0  0  0  0  0  0  0  0  0  0  0  0
   53.6469  156.8131   -5.6645 H   0  0  0  0  0  0  0  0  0  0  0  0
   54.8894  155.5540   -5.5397 H   0  0  0  0  0  0  0  0  0  0  0  0
   53.1856  155.1040   -5.5771 H   0  0  0  0  0  0  0  0  0  0  0  0
   55.0762  160.0925   -0.7362 H   0  0  0  0  0  0  0  0  0  0  0  0
   56.2842  159.0129   -0.0383 H   0  0  0  0  0  0  0  0  0  0  0  0
   54.0749  154.9605   -3.2689 H   0  0  0  0  0  0  0  0  0  0  0  0
   52.2234  156.4536   -2.3464 H   0  0  0  0  0  0  0  0  0  0  0  0
   51.7171  155.7367   -3.8575 H   0  0  0  0  0  0  0  0  0  0  0  0
  1  8  1  0  0  0  0
  1 10  1  0  0  0  0
  1 11  2  0  0  0  0
  2  9  1  0  0  0  0
  2 10  2  0  0  0  0
  2 15  1  0  0  0  0
  3  4  1  0  0  0  0
  3 12  1  0  0  0  0
  3 14  2  0  0  0  0
  4  5  1  0  0  0  0
  5  6  1  0  0  0  0
  6 12  1  0  0  0  0
  7  9  1  0  0  0  0
  8 12  1  0  0  0  0
  9 13  1  0  0  0  0
 11 15  1  0  0  0  0
  4 16  1  0  0  0  0
  4 17  1  0  0  0  0
  5 18  1  0  0  0  0
  5 19  1  0  0  0  0
  6 20  1  0  0  0  0
  6 21  1  0  0  0  0
  7 22  1  0  0  0  0
  7 23  1  0  0  0  0
  7 24  1  0  0  0  0
  8 25  1  0  0  0  0
  8 26  1  0  0  0  0
  9 27  1  0  0  0  0
 13 28  1  0  0  0  0
 13 29  1  0  0  0  0
M  END
> <FRED Chemgauss4 score>
-6.029748

$$$$
C85619496	P134078010
  -OEChem-05122015083D

 32 32  0     1  0  0  0  0  0999 V2000
   56.2476  155.9738   -5.4976 C   0  0  0  0  0  0  0  0  0  0  0  0
   60.8457  157.3249   -7.7377 C   0  0  0  0  0  0  0  0  0  0  0  0
   59.3953  156.6024   -5.9652 C   0  0  0  0  0  0  0  0  0  0  0  0
   59.6559  157.3036   -8.6890 C   0  0  0  0  0  0  0  0  0  0  0  0
   58.2243  156.6005   -6.9516 C   0  0  2  0  0  0  0  0  0  0  0  0
   54.6975  154.0979   -6.0863 C   0  0  0  0  0  0  0  0  0  0  0  0
   57.2061  155.5276   -6.5916 C   0  0  0  0  0  0  0  0  0  0  0  0
   53.7863  156.1414   -5.0540 C   0  0  0  0  0  0  0  0  0  0  0  0
   53.5718  155.8225   -3.5857 C   0  0  0  0  0  0  0  0  0  0  0  0
   60.3963  157.5922   -6.3706 N   0  0  0  0  0  0  0  0  0  0  0  0
   54.9616  155.4253   -5.5445 N   0  0  0  0  0  0  0  0  0  0  0  0
   56.6130  156.7755   -4.6337 O   0  0  0  0  0  0  0  0  0  0  0  0
   58.7040  156.3230   -8.2729 O   0  0  0  0  0  0  0  0  0  0  0  0
   52.4485  156.5490   -3.1039 O   0  0  0  0  0  0  0  0  0  0  0  0
   61.3690  156.3615   -7.7675 H   0  0  0  0  0  0  0  0  0  0  0  0
   61.5548  158.0998   -8.0464 H   0  0  0  0  0  0  0  0  0  0  0  0
   59.0384  156.8453   -4.9585 H   0  0  0  0  0  0  0  0  0  0  0  0
   59.8652  155.6118   -5.9211 H   0  0  0  0  0  0  0  0  0  0  0  0
   59.1677  158.2840   -8.7491 H   0  0  0  0  0  0  0  0  0  0  0  0
   59.9891  157.0374   -9.6970 H   0  0  0  0  0  0  0  0  0  0  0  0
   57.7202  157.5759   -6.9563 H   0  0  0  0  0  0  0  0  0  0  0  0
   54.7695  153.3478   -5.2945 H   0  0  0  0  0  0  0  0  0  0  0  0
   55.4243  153.8567   -6.8667 H   0  0  0  0  0  0  0  0  0  0  0  0
   53.6937  154.0587   -6.5180 H   0  0  0  0  0  0  0  0  0  0  0  0
   57.7429  154.6369   -6.2499 H   0  0  0  0  0  0  0  0  0  0  0  0
   56.6287  155.2790   -7.4878 H   0  0  0  0  0  0  0  0  0  0  0  0
   52.9239  155.8380   -5.6561 H   0  0  0  0  0  0  0  0  0  0  0  0
   53.9586  157.2133   -5.1897 H   0  0  0  0  0  0  0  0  0  0  0  0
   54.4469  156.1286   -3.0041 H   0  0  0  0  0  0  0  0  0  0  0  0
   53.3942  154.7537   -3.4277 H   0  0  0  0  0  0  0  0  0  0  0  0
   61.1932  157.5484   -5.7363 H   0  0  0  0  0  0  0  0  0  0  0  0
   52.3470  156.3175   -2.1666 H   0  0  0  0  0  0  0  0  0  0  0  0
  1  7  1  0  0  0  0
  1 11  1  0  0  0  0
  1 12  2  0  0  0  0
  2  4  1  0  0  0  0
  2 10  1  0  0  0  0
  3  5  1  0  0  0  0
  3 10  1  0  0  0  0
  4 13  1  0  0  0  0
  5  7  1  0  0  0  0
  5 13  1  0  0  0  0
  6 11  1  0  0  0  0
  8  9  1  0  0  0  0
  8 11  1  0  0  0  0
  9 14  1  0  0  0  0
  2 15  1  0  0  0  0
  2 16  1  0  0  0  0
  3 17  1  0  0  0  0
  3 18  1  0  0  0  0
  4 19  1  0  0  0  0
  4 20  1  0  0  0  0
  5 21  1  0  0  0  0
  6 22  1  0  0  0  0
  6 23  1  0  0  0  0
  6 24  1  0  0  0  0
  7 25  1  0  0  0  0
  7 26  1  0  0  0  0
  8 27  1  0  0  0  0
  8 28  1  0  0  0  0
  9 29  1  0  0  0  0
  9 30  1  0  0  0  0
 10 31  1  0  0  0  0
 14 32  1  0  0  0  0
M  END
> <FRED Chemgauss4 score>
-6.029048

$$$$
C83691805	P130926493
  -OEChem-05122015083D

 29 29  0     1  0  0  0  0  0999 V2000
   57.2455  155.7339   -6.4036 C   0  0  0  0  0  0  0  0  0  0  0  0
   55.7703  156.1143   -6.3009 C   0  0  0  0  0  0  0  0  0  0  0  0
   57.3949  154.2727   -6.8043 C   0  0  0  0  0  0  0  0  0  0  0  0
   55.2844  153.6785   -5.8980 C   0  0  0  0  0  0  0  0  0  0  0  0
   54.9708  155.1126   -5.4609 C   0  0  1  0  0  0  0  0  0  0  0  0
   53.0969  156.0094   -3.2049 C   0  0  0  0  0  0  0  0  0  0  0  0
   55.2267  156.9144   -2.2127 C   0  0  0  0  0  0  0  0  0  0  0  0
   54.5431  156.4128   -3.4832 C   0  0  0  0  0  0  0  0  0  0  0  0
   55.2763  155.2843   -4.0374 N   0  0  0  0  0  0  0  0  0  0  0  0
   56.6905  153.4240   -5.8993 O   0  0  0  0  0  0  0  0  0  0  0  0
   53.0769  154.9471   -2.2579 O   0  0  0  0  0  0  0  0  0  0  0  0
   54.5235  158.0466   -1.7137 O   0  0  0  0  0  0  0  0  0  0  0  0
   57.7178  156.3663   -7.1646 H   0  0  0  0  0  0  0  0  0  0  0  0
   57.7536  155.9229   -5.4526 H   0  0  0  0  0  0  0  0  0  0  0  0
   55.6939  157.1258   -5.8596 H   0  0  0  0  0  0  0  0  0  0  0  0
   55.3386  156.1953   -7.3150 H   0  0  0  0  0  0  0  0  0  0  0  0
   56.9756  154.1161   -7.8035 H   0  0  0  0  0  0  0  0  0  0  0  0
   58.4497  153.9744   -6.8383 H   0  0  0  0  0  0  0  0  0  0  0  0
   54.7862  152.9367   -5.2532 H   0  0  0  0  0  0  0  0  0  0  0  0
   54.9210  153.5047   -6.9214 H   0  0  0  0  0  0  0  0  0  0  0  0
   53.9081  155.3036   -5.6153 H   0  0  0  0  0  0  0  0  0  0  0  0
   52.6111  155.6506   -4.1183 H   0  0  0  0  0  0  0  0  0  0  0  0
   52.5177  156.8467   -2.8003 H   0  0  0  0  0  0  0  0  0  0  0  0
   56.2653  157.2062   -2.4032 H   0  0  0  0  0  0  0  0  0  0  0  0
   55.2125  156.1441   -1.4349 H   0  0  0  0  0  0  0  0  0  0  0  0
   54.5773  157.1873   -4.2586 H   0  0  0  0  0  0  0  0  0  0  0  0
   55.0179  154.4353   -3.5374 H   0  0  0  0  0  0  0  0  0  0  0  0
   52.1444  154.7232   -2.1107 H   0  0  0  0  0  0  0  0  0  0  0  0
   54.9886  158.3315   -0.9111 H   0  0  0  0  0  0  0  0  0  0  0  0
  1  2  1  0  0  0  0
  1  3  1  0  0  0  0
  2  5  1  0  0  0  0
  3 10  1  0  0  0  0
  4  5  1  0  0  0  0
  4 10  1  0  0  0  0
  5  9  1  0  0  0  0
  6  8  1  0  0  0  0
  6 11  1  0  0  0  0
  7  8  1  0  0  0  0
  7 12  1  0  0  0  0
  8  9  1  0  0  0  0
  1 13  1  0  0  0  0
  1 14  1  0  0  0  0
  2 15  1  0  0  0  0
  2 16  1  0  0  0  0
  3 17  1  0  0  0  0
  3 18  1  0  0  0  0
  4 19  1  0  0  0  0
  4 20  1  0  0  0  0
  5 21  1  0  0  0  0
  6 22  1  0  0  0  0
  6 23  1  0  0  0  0
  7 24  1  0  0  0  0
  7 25  1  0  0  0  0
  8 26  1  0  0  0  0
  9 27  1  0  0  0  0
 11 28  1  0  0  0  0
 12 29  1  0  0  0  0
M  END
> <FRED Chemgauss4 score>
-6.028884

$$$$
C62362185	P95703184
  -OEChem-05122015083D

 24 25  0     1  0  0  0  0  0999 V2000
   56.6471  159.7636   -3.7580 C   0  0  0  0  0  0  0  0  0  0  0  0
   56.4778  161.1080   -1.7664 C   0  0  0  0  0  0  0  0  0  0  0  0
   55.6982  159.3624   -2.8411 C   0  0  0  0  0  0  0  0  0  0  0  0
   54.8349  158.1844   -3.0572 C   0  0  0  0  0  0  0  0  0  0  0  0
   53.9388  156.4805   -3.8995 C   0  0  0  0  0  0  0  0  0  0  0  0
   56.1508  155.4062   -5.6668 C   0  0  0  0  0  0  0  0  0  0  0  0
   54.9748  154.5661   -5.1835 C   0  0  0  0  0  0  0  0  0  0  0  0
   53.7089  155.4063   -4.9434 C   0  0  2  0  0  0  0  0  0  0  0  0
   55.6000  160.1318   -1.6983 N   0  0  0  0  0  0  0  0  0  0  0  0
   53.9281  157.7911   -2.1937 N   0  0  0  0  0  0  0  0  0  0  0  0
   53.3386  156.6701   -2.7478 N   0  0  0  0  0  0  0  0  0  0  0  0
   53.2226  155.9867   -6.1751 N   0  0  0  0  0  0  0  0  0  0  0  0
   54.9034  157.4022   -4.1690 O   0  0  0  0  0  0  0  0  0  0  0  0
   57.4538  161.1611   -3.1769 S   0  0  0  0  0  0  0  0  0  0  0  0
   56.9031  159.3233   -4.7119 H   0  0  0  0  0  0  0  0  0  0  0  0
   56.5828  161.8427   -0.9799 H   0  0  0  0  0  0  0  0  0  0  0  0
   56.3766  156.2091   -4.9580 H   0  0  0  0  0  0  0  0  0  0  0  0
   57.0440  154.7811   -5.7656 H   0  0  0  0  0  0  0  0  0  0  0  0
   55.9461  155.8552   -6.6436 H   0  0  0  0  0  0  0  0  0  0  0  0
   54.7828  153.7760   -5.9203 H   0  0  0  0  0  0  0  0  0  0  0  0
   55.2684  154.0660   -4.2517 H   0  0  0  0  0  0  0  0  0  0  0  0
   52.9088  154.7391   -4.5992 H   0  0  0  0  0  0  0  0  0  0  0  0
   52.6172  156.7860   -6.1271 H   0  0  0  0  0  0  0  0  0  0  0  0
   53.3282  155.4685   -7.0284 H   0  0  0  0  0  0  0  0  0  0  0  0
  1  3  2  0  0  0  0
  1 14  1  0  0  0  0
  2  9  2  0  0  0  0
  2 14  1  0  0  0  0
  3  4  1  0  0  0  0
  3  9  1  0  0  0  0
  4 10  2  0  0  0  0
  4 13  1  0  0  0  0
  5  8  1  0  0  0  0
  5 11  2  0  0  0  0
  5 13  1  0  0  0  0
  6  7  1  0  0  0  0
  7  8  1  0  0  0  0
  8 12  1  0  0  0  0
 10 11  1  0  0  0  0
  1 15  1  0  0  0  0
  2 16  1  0  0  0  0
  6 17  1  0  0  0  0
  6 18  1  0  0  0  0
  6 19  1  0  0  0  0
  7 20  1  0  0  0  0
  7 21  1  0  0  0  0
  8 22  1  0  0  0  0
 12 23  1  0  0  0  0
 12 24  1  0  0  0  0
M  END
> <FRED Chemgauss4 score>
-6.028279

$$$$
C94719907	P148464092
  -OEChem-05122015083D

 39 40  0     1  0  0  0  0  0999 V2000
   58.7165  161.6969   -1.5233 C   0  0  0  0  0  0  0  0  0  0  0  0
   57.3534  159.7477   -1.1004 C   0  0  0  0  0  0  0  0  0  0  0  0
   58.4734  160.0004   -3.2262 C   0  0  0  0  0  0  0  0  0  0  0  0
   57.8888  160.9630   -0.6738 C   0  0  0  0  0  0  0  0  0  0  0  0
   59.0088  161.2157   -2.7996 C   0  0  0  0  0  0  0  0  0  0  0  0
   57.6456  159.2664   -2.3766 C   0  0  0  0  0  0  0  0  0  0  0  0
   54.5720  155.3006   -6.4609 C   0  0  0  0  0  0  0  0  0  0  0  0
   55.0609  154.5331   -5.2305 C   0  0  0  0  0  0  0  0  0  0  0  0
   55.0964  156.7312   -6.3035 C   0  0  0  0  0  0  0  0  0  0  0  0
   55.3186  155.6071   -4.1717 C   0  0  1  0  0  0  0  0  0  0  0  0
   55.9368  156.7137   -5.0295 C   0  0  2  0  0  0  0  0  0  0  0  0
   57.5770  161.4779    0.6908 C   0  0  0  0  0  0  0  0  0  0  0  0
   59.8941  161.9999   -3.7083 C   0  0  0  0  0  0  0  0  0  0  0  0
   57.0705  157.9615   -2.8343 C   0  0  0  0  0  0  0  0  0  0  0  0
   54.0547  155.9925   -3.5445 N   0  0  0  0  0  0  0  0  0  0  0  0
   54.7358  158.6550   -3.7833 O   0  0  0  0  0  0  0  0  0  0  0  0
   56.8029  159.1636   -5.1399 O   0  0  0  0  0  0  0  0  0  0  0  0
   56.0569  158.2863   -4.2570 S   0  0  0  0  0  0  0  0  0  0  0  0
   59.1340  162.6447   -1.1914 H   0  0  0  0  0  0  0  0  0  0  0  0
   56.7080  159.1754   -0.4379 H   0  0  0  0  0  0  0  0  0  0  0  0
   58.7010  159.6250   -4.2210 H   0  0  0  0  0  0  0  0  0  0  0  0
   54.9486  154.8529   -7.3841 H   0  0  0  0  0  0  0  0  0  0  0  0
   53.4798  155.2858   -6.5060 H   0  0  0  0  0  0  0  0  0  0  0  0
   54.2860  153.8270   -4.9075 H   0  0  0  0  0  0  0  0  0  0  0  0
   55.9615  153.9485   -5.4466 H   0  0  0  0  0  0  0  0  0  0  0  0
   55.7362  156.9712   -7.1605 H   0  0  0  0  0  0  0  0  0  0  0  0
   54.2826  157.4612   -6.2829 H   0  0  0  0  0  0  0  0  0  0  0  0
   55.9914  155.2643   -3.4552 H   0  0  0  0  0  0  0  0  0  0  0  0
   57.0089  156.4416   -5.2810 H   0  0  0  0  0  0  0  0  0  0  0  0
   56.6761  162.1031    0.6664 H   0  0  0  0  0  0  0  0  0  0  0  0
   57.4108  160.6555    1.3986 H   0  0  0  0  0  0  0  0  0  0  0  0
   58.4059  162.0773    1.0893 H   0  0  0  0  0  0  0  0  0  0  0  0
   60.9417  161.7073   -3.5668 H   0  0  0  0  0  0  0  0  0  0  0  0
   59.6270  161.8395   -4.7608 H   0  0  0  0  0  0  0  0  0  0  0  0
   59.8051  163.0776   -3.5187 H   0  0  0  0  0  0  0  0  0  0  0  0
   56.4432  157.4986   -2.0673 H   0  0  0  0  0  0  0  0  0  0  0  0
   57.8487  157.2503   -3.1256 H   0  0  0  0  0  0  0  0  0  0  0  0
   53.9818  156.9053   -3.1418 H   0  0  0  0  0  0  0  0  0  0  0  0
   53.3801  155.2785   -3.3550 H   0  0  0  0  0  0  0  0  0  0  0  0
  1  4  2  0  0  0  0
  1  5  1  0  0  0  0
  2  4  1  0  0  0  0
  2  6  2  0  0  0  0
  3  5  2  0  0  0  0
  3  6  1  0  0  0  0
  4 12  1  0  0  0  0
  5 13  1  0  0  0  0
  6 14  1  0  0  0  0
  7  8  1  0  0  0  0
  7  9  1  0  0  0  0
  8 10  1  0  0  0  0
  9 11  1  0  0  0  0
 10 11  1  0  0  0  0
 10 15  1  0  0  0  0
 11 18  1  0  0  0  0
 14 18  1  0  0  0  0
 16 18  2  0  0  0  0
 17 18  2  0  0  0  0
  1 19  1  0  0  0  0
  2 20  1  0  0  0  0
  3 21  1  0  0  0  0
  7 22  1  0  0  0  0
  7 23  1  0  0  0  0
  8 24  1  0  0  0  0
  8 25  1  0  0  0  0
  9 26  1  0  0  0  0
  9 27  1  0  0  0  0
 10 28  1  0  0  0  0
 11 29  1  0  0  0  0
 12 30  1  0  0  0  0
 12 31  1  0  0  0  0
 12 32  1  0  0  0  0
 13 33  1  0  0  0  0
 13 34  1  0  0  0  0
 13 35  1  0  0  0  0
 14 36  1  0  0  0  0
 14 37  1  0  0  0  0
 15 38  1  0  0  0  0
 15 39  1  0  0  0  0
M  END
> <FRED Chemgauss4 score>
-6.025596

$$$$
C86503752	P135438226
  -OEChem-05122015083D

 33 33  0     0  0  0  0  0  0999 V2000
   55.6818  156.0636   -4.2960 C   0  0  0  0  0  0  0  0  0  0  0  0
   55.0989  156.3450   -3.0709 C   0  0  0  0  0  0  0  0  0  0  0  0
   53.4878  157.6653   -4.0401 C   0  0  0  0  0  0  0  0  0  0  0  0
   55.1135  156.6284   -5.4323 C   0  0  0  0  0  0  0  0  0  0  0  0
   53.9954  157.4459   -5.3106 C   0  0  0  0  0  0  0  0  0  0  0  0
   58.3935  157.4487   -5.3713 C   0  0  0  0  0  0  0  0  0  0  0  0
   57.5473  158.2764   -7.5892 C   0  0  0  0  0  0  0  0  0  0  0  0
   60.0201  155.1033   -6.5840 C   0  0  0  0  0  0  0  0  0  0  0  0
   57.0294  155.8984   -6.8542 C   0  0  0  0  0  0  0  0  0  0  0  0
   58.0505  157.0517   -6.8134 C   0  0  0  0  0  0  0  0  0  0  0  0
   54.0126  157.1341   -2.9132 N   0  0  0  0  0  0  0  0  0  0  0  0
   53.3831  158.0398   -6.4291 N   0  0  0  0  0  0  0  0  0  0  0  0
   55.6753  156.3667   -6.6713 N   0  0  0  0  0  0  0  0  0  0  0  0
   59.1883  155.9725   -8.9047 O   0  0  0  0  0  0  0  0  0  0  0  0
   60.5452  157.5167   -7.4398 O   0  0  0  0  0  0  0  0  0  0  0  0
   59.5611  156.4751   -7.6049 S   0  0  0  0  0  0  0  0  0  0  0  0
   56.5539  155.4213   -4.3557 H   0  0  0  0  0  0  0  0  0  0  0  0
   55.5038  155.9290   -2.1543 H   0  0  0  0  0  0  0  0  0  0  0  0
   52.6172  158.2943   -3.8799 H   0  0  0  0  0  0  0  0  0  0  0  0
   58.7553  156.5862   -4.8002 H   0  0  0  0  0  0  0  0  0  0  0  0
   59.1842  158.2076   -5.3485 H   0  0  0  0  0  0  0  0  0  0  0  0
   57.5249  157.8612   -4.8472 H   0  0  0  0  0  0  0  0  0  0  0  0
   57.2938  158.0244   -8.6242 H   0  0  0  0  0  0  0  0  0  0  0  0
   56.6494  158.6974   -7.1224 H   0  0  0  0  0  0  0  0  0  0  0  0
   58.3041  159.0686   -7.6094 H   0  0  0  0  0  0  0  0  0  0  0  0
   60.9401  154.6713   -6.9809 H   0  0  0  0  0  0  0  0  0  0  0  0
   60.1761  155.4676   -5.5675 H   0  0  0  0  0  0  0  0  0  0  0  0
   59.2121  154.3706   -6.6082 H   0  0  0  0  0  0  0  0  0  0  0  0
   57.2550  155.1617   -6.0742 H   0  0  0  0  0  0  0  0  0  0  0  0
   57.0917  155.3677   -7.8115 H   0  0  0  0  0  0  0  0  0  0  0  0
   52.5508  158.5830   -6.3033 H   0  0  0  0  0  0  0  0  0  0  0  0
   53.7310  157.8355   -7.3460 H   0  0  0  0  0  0  0  0  0  0  0  0
   55.1057  156.5126   -7.4969 H   0  0  0  0  0  0  0  0  0  0  0  0
  1  2  2  0  0  0  0
  1  4  1  0  0  0  0
  2 11  1  0  0  0  0
  3  5  1  0  0  0  0
  3 11  2  0  0  0  0
  4  5  2  0  0  0  0
  4 13  1  0  0  0  0
  5 12  1  0  0  0  0
  6 10  1  0  0  0  0
  7 10  1  0  0  0  0
  8 16  1  0  0  0  0
  9 10  1  0  0  0  0
  9 13  1  0  0  0  0
 10 16  1  0  0  0  0
 14 16  2  0  0  0  0
 15 16  2  0  0  0  0
  1 17  1  0  0  0  0
  2 18  1  0  0  0  0
  3 19  1  0  0  0  0
  6 20  1  0  0  0  0
  6 21  1  0  0  0  0
  6 22  1  0  0  0  0
  7 23  1  0  0  0  0
  7 24  1  0  0  0  0
  7 25  1  0  0  0  0
  8 26  1  0  0  0  0
  8 27  1  0  0  0  0
  8 28  1  0  0  0  0
  9 29  1  0  0  0  0
  9 30  1  0  0  0  0
 12 31  1  0  0  0  0
 12 32  1  0  0  0  0
 13 33  1  0  0  0  0
M  END
> <FRED Chemgauss4 score>
-6.024944

$$$$
C82399830	P128760099
  -OEChem-05122015083D

 20 20  0     1  0  0  0  0  0999 V2000
   57.1560  156.7726   -6.3304 C   0  0  0  0  0  0  0  0  0  0  0  0
   55.9110  155.4153   -4.7838 C   0  0  0  0  0  0  0  0  0  0  0  0
   56.7049  157.8831   -5.6355 C   0  0  0  0  0  0  0  0  0  0  0  0
   56.7469  155.5188   -5.8900 C   0  0  0  0  0  0  0  0  0  0  0  0
   55.5157  156.5866   -4.1579 C   0  0  0  0  0  0  0  0  0  0  0  0
   53.2603  155.8549   -3.2679 C   0  0  0  0  0  0  0  0  0  0  0  0
   54.6189  156.5127   -2.9672 C   0  0  2  0  0  0  0  0  0  0  0  0
   55.8924  157.8222   -4.5567 N   0  0  0  0  0  0  0  0  0  0  0  0
   54.3916  157.8240   -2.3793 N   0  0  0  0  0  0  0  0  0  0  0  0
   52.4524  155.8515   -2.0953 O   0  0  0  0  0  0  0  0  0  0  0  0
   57.2724  154.1020   -6.7118 Cl  0  0  0  0  0  0  0  0  0  0  0  0
   57.8080  156.8914   -7.1895 H   0  0  0  0  0  0  0  0  0  0  0  0
   55.5765  154.4493   -4.4184 H   0  0  0  0  0  0  0  0  0  0  0  0
   56.9956  158.8835   -5.9387 H   0  0  0  0  0  0  0  0  0  0  0  0
   52.7239  156.4201   -4.0380 H   0  0  0  0  0  0  0  0  0  0  0  0
   53.3762  154.8203   -3.6086 H   0  0  0  0  0  0  0  0  0  0  0  0
   55.0980  155.9323   -2.1586 H   0  0  0  0  0  0  0  0  0  0  0  0
   55.1453  158.4804   -2.3777 H   0  0  0  0  0  0  0  0  0  0  0  0
   53.5732  157.9581   -1.8211 H   0  0  0  0  0  0  0  0  0  0  0  0
   51.6134  155.4290   -2.3377 H   0  0  0  0  0  0  0  0  0  0  0  0
  1  3  1  0  0  0  0
  1  4  2  0  0  0  0
  2  4  1  0  0  0  0
  2  5  2  0  0  0  0
  3  8  2  0  0  0  0
  4 11  1  0  0  0  0
  5  7  1  0  0  0  0
  5  8  1  0  0  0  0
  6  7  1  0  0  0  0
  6 10  1  0  0  0  0
  7  9  1  0  0  0  0
  1 12  1  0  0  0  0
  2 13  1  0  0  0  0
  3 14  1  0  0  0  0
  6 15  1  0  0  0  0
  6 16  1  0  0  0  0
  7 17  1  0  0  0  0
  9 18  1  0  0  0  0
  9 19  1  0  0  0  0
 10 20  1  0  0  0  0
M  END
> <FRED Chemgauss4 score>
-6.018551

$$$$
C95660646	P150432542
  -OEChem-05122015083D

 27 27  0     1  0  0  0  0  0999 V2000
   56.2164  153.3534   -6.8129 C   0  0  0  0  0  0  0  0  0  0  0  0
   54.8815  153.5769   -6.3990 C   0  0  0  0  0  0  0  0  0  0  0  0
   56.9333  154.4522   -6.4000 C   0  0  0  0  0  0  0  0  0  0  0  0
   54.8779  154.7962   -5.7625 C   0  0  0  0  0  0  0  0  0  0  0  0
   59.1260  153.9593   -7.5116 C   0  0  0  0  0  0  0  0  0  0  0  0
   54.9219  155.6040   -2.7785 C   0  0  0  0  0  0  0  0  0  0  0  0
   58.3481  154.8324   -6.5174 C   0  0  0  0  0  0  0  0  0  0  0  0
   53.7856  155.6172   -5.0910 C   0  0  1  0  0  0  0  0  0  0  0  0
   54.3466  156.4500   -3.9126 C   0  0  1  0  0  0  0  0  0  0  0  0
   53.1053  156.4632   -6.0779 N   0  0  0  0  0  0  0  0  0  0  0  0
   56.1248  155.3364   -5.7588 O   0  0  0  0  0  0  0  0  0  0  0  0
   53.2922  157.2429   -3.3561 O   0  0  0  0  0  0  0  0  0  0  0  0
   56.6050  152.4973   -7.3456 H   0  0  0  0  0  0  0  0  0  0  0  0
   54.0304  152.9277   -6.5476 H   0  0  0  0  0  0  0  0  0  0  0  0
   59.0445  152.9008   -7.2419 H   0  0  0  0  0  0  0  0  0  0  0  0
   60.1880  154.2232   -7.5313 H   0  0  0  0  0  0  0  0  0  0  0  0
   58.7277  154.0795   -8.5248 H   0  0  0  0  0  0  0  0  0  0  0  0
   54.1919  154.8867   -2.3932 H   0  0  0  0  0  0  0  0  0  0  0  0
   55.2644  156.2369   -1.9525 H   0  0  0  0  0  0  0  0  0  0  0  0
   55.7967  155.0442   -3.1280 H   0  0  0  0  0  0  0  0  0  0  0  0
   58.4592  155.8914   -6.8296 H   0  0  0  0  0  0  0  0  0  0  0  0
   58.8649  154.7808   -5.5367 H   0  0  0  0  0  0  0  0  0  0  0  0
   53.0384  154.9210   -4.6870 H   0  0  0  0  0  0  0  0  0  0  0  0
   55.1213  157.1457   -4.2548 H   0  0  0  0  0  0  0  0  0  0  0  0
   52.6068  157.2549   -5.7429 H   0  0  0  0  0  0  0  0  0  0  0  0
   52.9991  156.1049   -6.9988 H   0  0  0  0  0  0  0  0  0  0  0  0
   53.6990  157.7864   -2.6662 H   0  0  0  0  0  0  0  0  0  0  0  0
  1  2  1  0  0  0  0
  1  3  2  0  0  0  0
  2  4  2  0  0  0  0
  3  7  1  0  0  0  0
  3 11  1  0  0  0  0
  4  8  1  0  0  0  0
  4 11  1  0  0  0  0
  5  7  1  0  0  0  0
  6  9  1  0  0  0  0
  8  9  1  0  0  0  0
  8 10  1  0  0  0  0
  9 12  1  0  0  0  0
  1 13  1  0  0  0  0
  2 14  1  0  0  0  0
  5 15  1  0  0  0  0
  5 16  1  0  0  0  0
  5 17  1  0  0  0  0
  6 18  1  0  0  0  0
  6 19  1  0  0  0  0
  6 20  1  0  0  0  0
  7 21  1  0  0  0  0
  7 22  1  0  0  0  0
  8 23  1  0  0  0  0
  9 24  1  0  0  0  0
 10 25  1  0  0  0  0
 10 26  1  0  0  0  0
 12 27  1  0  0  0  0
M  END
> <FRED Chemgauss4 score>
-6.008306

$$$$
C01529206	P22833959
  -OEChem-05122015083D

 24 24  0     1  0  0  0  0  0999 V2000
   53.2206  155.0523   -4.3369 C   0  0  1  0  0  0  0  0  0  0  0  0
   54.3471  155.1355   -5.3685 C   0  0  2  0  0  0  0  0  0  0  0  0
   53.6956  155.6638   -3.0177 C   0  0  1  0  0  0  0  0  0  0  0  0
   54.8553  156.5788   -5.4928 C   0  0  2  0  0  0  0  0  0  0  0  0
   54.2468  157.0762   -3.2354 C   0  0  2  0  0  0  0  0  0  0  0  0
   56.0445  156.6778   -6.4431 C   0  0  0  0  0  0  0  0  0  0  0  0
   55.2864  157.0579   -4.2148 O   0  0  0  0  0  0  0  0  0  0  0  0
   52.0942  155.7862   -4.8264 O   0  0  0  0  0  0  0  0  0  0  0  0
   53.8908  154.6667   -6.6311 O   0  0  0  0  0  0  0  0  0  0  0  0
   52.6172  155.7139   -2.0891 O   0  0  0  0  0  0  0  0  0  0  0  0
   54.7690  157.5397   -1.9906 O   0  0  0  0  0  0  0  0  0  0  0  0
   56.4510  158.0322   -6.5168 O   0  0  0  0  0  0  0  0  0  0  0  0
   52.8838  154.0185   -4.2018 H   0  0  0  0  0  0  0  0  0  0  0  0
   55.1681  154.4856   -5.0393 H   0  0  0  0  0  0  0  0  0  0  0  0
   54.4768  155.0289   -2.5823 H   0  0  0  0  0  0  0  0  0  0  0  0
   54.0679  157.2374   -5.8789 H   0  0  0  0  0  0  0  0  0  0  0  0
   53.4541  157.7715   -3.5386 H   0  0  0  0  0  0  0  0  0  0  0  0
   55.7566  156.3335   -7.4365 H   0  0  0  0  0  0  0  0  0  0  0  0
   56.8710  156.0733   -6.0695 H   0  0  0  0  0  0  0  0  0  0  0  0
   52.3970  156.6979   -4.9464 H   0  0  0  0  0  0  0  0  0  0  0  0
   53.6138  153.7452   -6.5036 H   0  0  0  0  0  0  0  0  0  0  0  0
   52.3229  154.7991   -1.9557 H   0  0  0  0  0  0  0  0  0  0  0  0
   55.1111  158.4320   -2.1520 H   0  0  0  0  0  0  0  0  0  0  0  0
   57.2078  158.0703   -7.1263 H   0  0  0  0  0  0  0  0  0  0  0  0
  1  2  1  0  0  0  0
  1  3  1  0  0  0  0
  1  8  1  0  0  0  0
  2  4  1  0  0  0  0
  2  9  1  0  0  0  0
  3  5  1  0  0  0  0
  3 10  1  0  0  0  0
  4  6  1  0  0  0  0
  4  7  1  0  0  0  0
  5  7  1  0  0  0  0
  5 11  1  0  0  0  0
  6 12  1  0  0  0  0
  1 13  1  0  0  0  0
  2 14  1  0  0  0  0
  3 15  1  0  0  0  0
  4 16  1  0  0  0  0
  5 17  1  0  0  0  0
  6 18  1  0  0  0  0
  6 19  1  0  0  0  0
  8 20  1  0  0  0  0
  9 21  1  0  0  0  0
 10 22  1  0  0  0  0
 11 23  1  0  0  0  0
 12 24  1  0  0  0  0
M  END
> <FRED Chemgauss4 score>
-6.008284

$$$$
C04544517	P06219504
  -OEChem-05122015083D

 23 22  0     1  0  0  0  0  0999 V2000
   53.6329  157.3795   -3.8935 C   0  0  0  0  0  0  0  0  0  0  0  0
   56.6247  155.0694   -6.1982 C   0  0  0  0  0  0  0  0  0  0  0  0
   54.6365  156.2641   -3.6720 C   0  0  2  0  0  0  0  0  0  0  0  0
   55.3670  155.7806   -6.6829 C   0  0  1  0  0  0  0  0  0  0  0  0
   54.2238  155.0189   -4.4642 C   0  0  2  0  0  0  0  0  0  0  0  0
   54.1001  155.2537   -5.9860 C   0  0  1  0  0  0  0  0  0  0  0  0
   53.9140  158.4811   -4.3552 O   0  0  0  0  0  0  0  0  0  0  0  0
   54.6770  155.9749   -2.2865 O   0  0  0  0  0  0  0  0  0  0  0  0
   55.5231  157.1743   -6.4235 O   0  0  0  0  0  0  0  0  0  0  0  0
   52.9823  154.5452   -3.9399 O   0  0  0  0  0  0  0  0  0  0  0  0
   53.0324  156.1808   -6.2067 O   0  0  0  0  0  0  0  0  0  0  0  0
   57.6156  155.2821   -7.1092 F   0  0  0  0  0  0  0  0  0  0  0  0
   52.5993  157.1570   -3.5766 H   0  0  0  0  0  0  0  0  0  0  0  0
   56.9786  155.4623   -5.2405 H   0  0  0  0  0  0  0  0  0  0  0  0
   56.4759  153.9888   -6.1209 H   0  0  0  0  0  0  0  0  0  0  0  0
   55.6151  156.6350   -3.9962 H   0  0  0  0  0  0  0  0  0  0  0  0
   55.2808  155.6591   -7.7678 H   0  0  0  0  0  0  0  0  0  0  0  0
   54.9560  154.2181   -4.2972 H   0  0  0  0  0  0  0  0  0  0  0  0
   53.8028  154.3163   -6.4716 H   0  0  0  0  0  0  0  0  0  0  0  0
   54.9503  156.7904   -1.8326 H   0  0  0  0  0  0  0  0  0  0  0  0
   54.7140  157.6053   -6.7389 H   0  0  0  0  0  0  0  0  0  0  0  0
   52.7485  153.7611   -4.4587 H   0  0  0  0  0  0  0  0  0  0  0  0
   52.9123  156.2313   -7.1660 H   0  0  0  0  0  0  0  0  0  0  0  0
  1  3  1  0  0  0  0
  1  7  2  0  0  0  0
  2  4  1  0  0  0  0
  2 12  1  0  0  0  0
  3  5  1  0  0  0  0
  3  8  1  0  0  0  0
  4  6  1  0  0  0  0
  4  9  1  0  0  0  0
  5  6  1  0  0  0  0
  5 10  1  0  0  0  0
  6 11  1  0  0  0  0
  1 13  1  0  0  0  0
  2 14  1  0  0  0  0
  2 15  1  0  0  0  0
  3 16  1  0  0  0  0
  4 17  1  0  0  0  0
  5 18  1  0  0  0  0
  6 19  1  0  0  0  0
  8 20  1  0  0  0  0
  9 21  1  0  0  0  0
 10 22  1  0  0  0  0
 11 23  1  0  0  0  0
M  END
> <FRED Chemgauss4 score>
-6.007351

$$$$
C40366541	P61281403
  -OEChem-05122015083D

 21 20  0     1  0  0  0  0  0999 V2000
   55.7702  155.5989   -6.4096 C   0  0  0  0  0  0  0  0  0  0  0  0
   53.6006  155.3427   -5.0912 C   0  0  0  0  0  0  0  0  0  0  0  0
   55.0266  155.9060   -5.1088 C   0  0  2  0  0  0  0  0  0  0  0  0
   56.4020  157.7109   -2.7396 C   0  0  0  0  0  0  0  0  0  0  0  0
   55.0176  157.3498   -4.8722 N   0  5  0  0  0  0  0  0  0  0  0  0
   52.7689  155.9205   -6.1765 N   0  3  0  0  0  0  0  0  0  0  0  0
   54.0977  156.6353   -2.5649 O   0  0  0  0  0  0  0  0  0  0  0  0
   54.2586  159.0471   -3.0786 O   0  0  0  0  0  0  0  0  0  0  0  0
   57.1340  158.6548   -3.3853 F   0  0  0  0  0  0  0  0  0  0  0  0
   56.4442  158.0222   -1.4195 F   0  0  0  0  0  0  0  0  0  0  0  0
   54.7330  157.6925   -3.3459 S   0  0  0  0  0  0  0  0  0  0  0  0
   55.2666  156.0694   -7.2623 H   0  0  0  0  0  0  0  0  0  0  0  0
   55.8003  154.5197   -6.5950 H   0  0  0  0  0  0  0  0  0  0  0  0
   56.7999  155.9733   -6.3977 H   0  0  0  0  0  0  0  0  0  0  0  0
   53.0899  155.5753   -4.1512 H   0  0  0  0  0  0  0  0  0  0  0  0
   53.5928  154.2576   -5.2402 H   0  0  0  0  0  0  0  0  0  0  0  0
   55.5774  155.4100   -4.2984 H   0  0  0  0  0  0  0  0  0  0  0  0
   56.8679  156.7350   -2.8987 H   0  0  0  0  0  0  0  0  0  0  0  0
   52.1086  156.6106   -5.8038 H   0  0  0  0  0  0  0  0  0  0  0  0
   52.2288  155.1897   -6.6516 H   0  0  0  0  0  0  0  0  0  0  0  0
   53.3542  156.3879   -6.8768 H   0  0  0  0  0  0  0  0  0  0  0  0
  1  3  1  0  0  0  0
  2  3  1  0  0  0  0
  2  6  1  0  0  0  0
  3  5  1  0  0  0  0
  4  9  1  0  0  0  0
  4 10  1  0  0  0  0
  4 11  1  0  0  0  0
  5 11  1  0  0  0  0
  7 11  2  0  0  0  0
  8 11  2  0  0  0  0
  1 12  1  0  0  0  0
  1 13  1  0  0  0  0
  1 14  1  0  0  0  0
  2 15  1  0  0  0  0
  2 16  1  0  0  0  0
  3 17  1  0  0  0  0
  4 18  1  0  0  0  0
  6 19  1  0  0  0  0
  6 20  1  0  0  0  0
  6 21  1  0  0  0  0
M  CHG  2   5  -1   6   1
M  END
> <FRED Chemgauss4 score>
-6.000888

$$$$
C54498092	P82014584
  -OEChem-05122015083D

 32 32  0     1  0  0  0  0  0999 V2000
   53.8128  155.2445   -3.5669 C   0  0  0  0  0  0  0  0  0  0  0  0
   54.5098  157.2753   -3.2523 C   0  0  0  0  0  0  0  0  0  0  0  0
   55.0406  156.4898   -6.4482 C   0  0  0  0  0  0  0  0  0  0  0  0
   56.1372  154.5679   -5.2194 C   0  0  0  0  0  0  0  0  0  0  0  0
   57.3315  160.3353    0.0160 C   0  0  0  0  0  0  0  0  0  0  0  0
   55.4731  159.3561   -2.1287 C   0  0  0  0  0  0  0  0  0  0  0  0
   56.1844  158.5716   -1.0311 C   0  0  0  0  0  0  0  0  0  0  0  0
   55.2975  158.5565   -3.4297 C   0  0  2  0  0  0  0  0  0  0  0  0
   55.6243  156.0058   -5.1195 C   0  0  0  0  0  0  0  0  0  0  0  0
   53.1262  155.7468   -2.5655 N   0  0  0  0  0  0  0  0  0  0  0  0
   53.5697  157.0388   -2.3654 N   0  0  0  0  0  0  0  0  0  0  0  0
   54.6955  156.1727   -4.0297 N   0  0  0  0  0  0  0  0  0  0  0  0
   54.6877  159.3835   -4.4487 N   0  0  0  0  0  0  0  0  0  0  0  0
   56.2766  159.3899    0.1281 O   0  0  0  0  0  0  0  0  0  0  0  0
   53.7145  154.2516   -3.9819 H   0  0  0  0  0  0  0  0  0  0  0  0
   54.1667  155.9021   -6.7490 H   0  0  0  0  0  0  0  0  0  0  0  0
   55.7857  156.4109   -7.2470 H   0  0  0  0  0  0  0  0  0  0  0  0
   54.7299  157.5383   -6.3793 H   0  0  0  0  0  0  0  0  0  0  0  0
   55.3180  153.8760   -5.4443 H   0  0  0  0  0  0  0  0  0  0  0  0
   56.5922  154.2554   -4.2735 H   0  0  0  0  0  0  0  0  0  0  0  0
   56.8924  154.4570   -6.0048 H   0  0  0  0  0  0  0  0  0  0  0  0
   57.3729  160.9453    0.9217 H   0  0  0  0  0  0  0  0  0  0  0  0
   57.1611  160.9709   -0.8566 H   0  0  0  0  0  0  0  0  0  0  0  0
   58.2767  159.8007   -0.1042 H   0  0  0  0  0  0  0  0  0  0  0  0
   56.0515  160.2672   -2.3360 H   0  0  0  0  0  0  0  0  0  0  0  0
   54.5083  159.7192   -1.7506 H   0  0  0  0  0  0  0  0  0  0  0  0
   55.6325  157.6651   -0.7655 H   0  0  0  0  0  0  0  0  0  0  0  0
   57.1969  158.2961   -1.3425 H   0  0  0  0  0  0  0  0  0  0  0  0
   56.2954  158.3195   -3.8196 H   0  0  0  0  0  0  0  0  0  0  0  0
   56.4890  156.6434   -4.8940 H   0  0  0  0  0  0  0  0  0  0  0  0
   54.2486  158.9375   -5.2327 H   0  0  0  0  0  0  0  0  0  0  0  0
   54.8908  160.3660   -4.4575 H   0  0  0  0  0  0  0  0  0  0  0  0
  1 10  2  0  0  0  0
  1 12  1  0  0  0  0
  2  8  1  0  0  0  0
  2 11  2  0  0  0  0
  2 12  1  0  0  0  0
  3  9  1  0  0  0  0
  4  9  1  0  0  0  0
  5 14  1  0  0  0  0
  6  7  1  0  0  0  0
  6  8  1  0  0  0  0
  7 14  1  0  0  0  0
  8 13  1  0  0  0  0
  9 12  1  0  0  0  0
 10 11  1  0  0  0  0
  1 15  1  0  0  0  0
  3 16  1  0  0  0  0
  3 17  1  0  0  0  0
  3 18  1  0  0  0  0
  4 19  1  0  0  0  0
  4 20  1  0  0  0  0
  4 21  1  0  0  0  0
  5 22  1  0  0  0  0
  5 23  1  0  0  0  0
  5 24  1  0  0  0  0
  6 25  1  0  0  0  0
  6 26  1  0  0  0  0
  7 27  1  0  0  0  0
  7 28  1  0  0  0  0
  8 29  1  0  0  0  0
  9 30  1  0  0  0  0
 13 31  1  0  0  0  0
 13 32  1  0  0  0  0
M  END
> <FRED Chemgauss4 score>
-5.998252

$$$$
C82900115	P129596089
  -OEChem-05122015083D

 32 32  0     1  0  0  0  0  0999 V2000
   60.8500  155.3690   -6.8131 C   0  0  0  0  0  0  0  0  0  0  0  0
   59.7700  154.3975   -6.4078 C   0  0  0  0  0  0  0  0  0  0  0  0
   60.0510  156.4566   -7.4996 C   0  0  0  0  0  0  0  0  0  0  0  0
   58.8326  154.4723   -7.6007 C   0  0  1  0  0  0  0  0  0  0  0  0
   57.3983  154.1108   -7.2668 C   0  0  0  0  0  0  0  0  0  0  0  0
   55.1268  155.6844   -4.8297 C   0  0  0  0  0  0  0  0  0  0  0  0
   55.5703  154.7108   -5.9173 C   0  0  0  0  0  0  0  0  0  0  0  0
   53.3888  156.0679   -3.0154 C   0  0  0  0  0  0  0  0  0  0  0  0
   53.6736  155.4604   -4.3908 C   0  0  1  0  0  0  0  0  0  0  0  0
   52.7490  155.9930   -5.3665 N   0  0  0  0  0  0  0  0  0  0  0  0
   58.8966  155.8277   -8.0759 O   0  0  0  0  0  0  0  0  0  0  0  0
   54.2215  155.4794   -2.0245 O   0  0  0  0  0  0  0  0  0  0  0  0
   56.9158  155.0029   -6.2715 O   0  0  0  0  0  0  0  0  0  0  0  0
   61.4455  155.7408   -5.9753 H   0  0  0  0  0  0  0  0  0  0  0  0
   61.5283  154.8930   -7.5311 H   0  0  0  0  0  0  0  0  0  0  0  0
   60.1425  153.3863   -6.2223 H   0  0  0  0  0  0  0  0  0  0  0  0
   59.2770  154.7555   -5.4959 H   0  0  0  0  0  0  0  0  0  0  0  0
   59.6985  157.2030   -6.7798 H   0  0  0  0  0  0  0  0  0  0  0  0
   60.6215  156.9671   -8.2806 H   0  0  0  0  0  0  0  0  0  0  0  0
   59.1960  153.8281   -8.4100 H   0  0  0  0  0  0  0  0  0  0  0  0
   57.3399  153.0883   -6.8820 H   0  0  0  0  0  0  0  0  0  0  0  0
   56.7642  154.1965   -8.1543 H   0  0  0  0  0  0  0  0  0  0  0  0
   55.2727  156.7101   -5.1926 H   0  0  0  0  0  0  0  0  0  0  0  0
   55.7970  155.5744   -3.9674 H   0  0  0  0  0  0  0  0  0  0  0  0
   54.9503  154.8070   -6.8138 H   0  0  0  0  0  0  0  0  0  0  0  0
   55.5225  153.6776   -5.5589 H   0  0  0  0  0  0  0  0  0  0  0  0
   52.3459  155.8913   -2.7318 H   0  0  0  0  0  0  0  0  0  0  0  0
   53.5699  157.1482   -3.0207 H   0  0  0  0  0  0  0  0  0  0  0  0
   53.4716  154.3840   -4.3381 H   0  0  0  0  0  0  0  0  0  0  0  0
   51.8151  156.2179   -5.0752 H   0  0  0  0  0  0  0  0  0  0  0  0
   52.9875  155.9360   -6.3399 H   0  0  0  0  0  0  0  0  0  0  0  0
   53.9949  155.9033   -1.1812 H   0  0  0  0  0  0  0  0  0  0  0  0
  1  2  1  0  0  0  0
  1  3  1  0  0  0  0
  2  4  1  0  0  0  0
  3 11  1  0  0  0  0
  4  5  1  0  0  0  0
  4 11  1  0  0  0  0
  5 13  1  0  0  0  0
  6  7  1  0  0  0  0
  6  9  1  0  0  0  0
  7 13  1  0  0  0  0
  8  9  1  0  0  0  0
  8 12  1  0  0  0  0
  9 10  1  0  0  0  0
  1 14  1  0  0  0  0
  1 15  1  0  0  0  0
  2 16  1  0  0  0  0
  2 17  1  0  0  0  0
  3 18  1  0  0  0  0
  3 19  1  0  0  0  0
  4 20  1  0  0  0  0
  5 21  1  0  0  0  0
  5 22  1  0  0  0  0
  6 23  1  0  0  0  0
  6 24  1  0  0  0  0
  7 25  1  0  0  0  0
  7 26  1  0  0  0  0
  8 27  1  0  0  0  0
  8 28  1  0  0  0  0
  9 29  1  0  0  0  0
 10 30  1  0  0  0  0
 10 31  1  0  0  0  0
 12 32  1  0  0  0  0
M  END
> <FRED Chemgauss4 score>
-5.997068

$$$$
C82476675	P128888917
  -OEChem-05122015083D

 28 28  0     1  0  0  0  0  0999 V2000
   53.8664  156.1863   -4.1429 C   0  0  0  0  0  0  0  0  0  0  0  0
   57.8418  158.3227   -4.8844 C   0  0  0  0  0  0  0  0  0  0  0  0
   53.9575  158.1315   -5.7069 C   0  0  0  0  0  0  0  0  0  0  0  0
   55.2345  157.5372   -6.2719 C   0  0  0  0  0  0  0  0  0  0  0  0
   55.2434  155.7425   -4.6189 C   0  0  1  0  0  0  0  0  0  0  0  0
   56.4094  153.9899   -5.9613 C   0  0  0  0  0  0  0  0  0  0  0  0
   56.5995  157.7319   -4.2677 C   0  0  0  0  0  0  0  0  0  0  0  0
   55.0855  154.5470   -5.5622 C   0  0  0  0  0  0  0  0  0  0  0  0
   53.2668  157.2280   -4.8129 N   0  0  0  0  0  0  0  0  0  0  0  0
   56.0093  156.8267   -5.2534 N   0  0  2  0  0  0  0  0  0  0  0  0
   58.8074  157.4159   -5.2344 N   0  0  0  0  0  0  0  0  0  0  0  0
   53.2853  155.5658   -3.2492 O   0  0  0  0  0  0  0  0  0  0  0  0
   58.0259  159.9638   -5.1395 S   0  0  0  0  0  0  0  0  0  0  0  0
   54.1675  159.0536   -5.1533 H   0  0  0  0  0  0  0  0  0  0  0  0
   53.2543  158.3777   -6.5125 H   0  0  0  0  0  0  0  0  0  0  0  0
   54.9484  156.8535   -7.1013 H   0  0  0  0  0  0  0  0  0  0  0  0
   55.8489  158.3347   -6.7495 H   0  0  0  0  0  0  0  0  0  0  0  0
   55.7823  155.3840   -3.7200 H   0  0  0  0  0  0  0  0  0  0  0  0
   56.9937  154.7685   -6.4656 H   0  0  0  0  0  0  0  0  0  0  0  0
   56.2901  153.1516   -6.6557 H   0  0  0  0  0  0  0  0  0  0  0  0
   56.9749  153.6547   -5.0853 H   0  0  0  0  0  0  0  0  0  0  0  0
   55.8581  158.4909   -4.0049 H   0  0  0  0  0  0  0  0  0  0  0  0
   56.8512  157.1418   -3.3816 H   0  0  0  0  0  0  0  0  0  0  0  0
   54.4955  153.7800   -5.0590 H   0  0  0  0  0  0  0  0  0  0  0  0
   54.5358  154.8699   -6.4471 H   0  0  0  0  0  0  0  0  0  0  0  0
   52.2692  157.3741   -4.6707 H   0  0  0  0  0  0  0  0  0  0  0  0
   58.6911  156.4183   -5.0879 H   0  0  0  0  0  0  0  0  0  0  0  0
   59.6795  157.7162   -5.6570 H   0  0  0  0  0  0  0  0  0  0  0  0
  1  5  1  0  0  0  0
  1  9  1  0  0  0  0
  1 12  2  0  0  0  0
  2  7  1  0  0  0  0
  2 11  1  0  0  0  0
  2 13  2  0  0  0  0
  3  4  1  0  0  0  0
  3  9  1  0  0  0  0
  4 10  1  0  0  0  0
  5  8  1  0  0  0  0
  5 10  1  0  0  0  0
  6  8  1  0  0  0  0
  7 10  1  0  0  0  0
  3 14  1  0  0  0  0
  3 15  1  0  0  0  0
  4 16  1  0  0  0  0
  4 17  1  0  0  0  0
  5 18  1  0  0  0  0
  6 19  1  0  0  0  0
  6 20  1  0  0  0  0
  6 21  1  0  0  0  0
  7 22  1  0  0  0  0
  7 23  1  0  0  0  0
  8 24  1  0  0  0  0
  8 25  1  0  0  0  0
  9 26  1  0  0  0  0
 11 27  1  0  0  0  0
 11 28  1  0  0  0  0
M  END
> <FRED Chemgauss4 score>
-5.992475

$$$$
C85004486	P133054956
  -OEChem-05122015083D

 24 24  0     1  0  0  0  0  0999 V2000
   54.9949  156.2560   -5.5978 C   0  0  0  0  0  0  0  0  0  0  0  0
   53.8650  156.1067   -3.7506 C   0  0  0  0  0  0  0  0  0  0  0  0
   58.2073  157.1459   -7.4651 C   0  0  0  0  0  0  0  0  0  0  0  0
   56.1417  156.0721   -6.5401 C   0  0  0  0  0  0  0  0  0  0  0  0
   58.1364  156.6115   -4.9829 C   0  0  0  0  0  0  0  0  0  0  0  0
   57.3130  157.0182   -6.2237 C   0  0  1  0  0  0  0  0  0  0  0  0
   53.8865  156.8684   -5.8932 N   0  0  0  0  0  0  0  0  0  0  0  0
   55.0633  155.7720   -4.3409 N   0  0  0  0  0  0  0  0  0  0  0  0
   53.1519  156.7899   -4.7444 N   0  0  0  0  0  0  0  0  0  0  0  0
   59.1628  157.5792   -4.6156 N   0  0  0  0  0  0  0  0  0  0  0  0
   53.4979  155.8641   -2.6111 O   0  0  0  0  0  0  0  0  0  0  0  0
   56.7564  158.3162   -5.9711 O   0  0  0  0  0  0  0  0  0  0  0  0
   59.0520  157.8161   -7.2674 H   0  0  0  0  0  0  0  0  0  0  0  0
   58.6048  156.1780   -7.7866 H   0  0  0  0  0  0  0  0  0  0  0  0
   57.6538  157.5885   -8.3012 H   0  0  0  0  0  0  0  0  0  0  0  0
   56.4627  155.0285   -6.4382 H   0  0  0  0  0  0  0  0  0  0  0  0
   55.7704  156.2204   -7.5592 H   0  0  0  0  0  0  0  0  0  0  0  0
   58.6194  155.6441   -5.1701 H   0  0  0  0  0  0  0  0  0  0  0  0
   57.4729  156.4392   -4.1269 H   0  0  0  0  0  0  0  0  0  0  0  0
   55.8343  155.2682   -3.9195 H   0  0  0  0  0  0  0  0  0  0  0  0
   52.2221  157.1720   -4.6273 H   0  0  0  0  0  0  0  0  0  0  0  0
   59.6673  158.0326   -5.3479 H   0  0  0  0  0  0  0  0  0  0  0  0
   59.4665  157.6067   -3.6650 H   0  0  0  0  0  0  0  0  0  0  0  0
   56.2526  158.5491   -6.7630 H   0  0  0  0  0  0  0  0  0  0  0  0
  1  4  1  0  0  0  0
  1  7  2  0  0  0  0
  1  8  1  0  0  0  0
  2  8  1  0  0  0  0
  2  9  1  0  0  0  0
  2 11  2  0  0  0  0
  3  6  1  0  0  0  0
  4  6  1  0  0  0  0
  5  6  1  0  0  0  0
  5 10  1  0  0  0  0
  6 12  1  0  0  0  0
  7  9  1  0  0  0  0
  3 13  1  0  0  0  0
  3 14  1  0  0  0  0
  3 15  1  0  0  0  0
  4 16  1  0  0  0  0
  4 17  1  0  0  0  0
  5 18  1  0  0  0  0
  5 19  1  0  0  0  0
  8 20  1  0  0  0  0
  9 21  1  0  0  0  0
 10 22  1  0  0  0  0
 10 23  1  0  0  0  0
 12 24  1  0  0  0  0
M  END
> <FRED Chemgauss4 score>
-5.987704

$$$$
C45626663	P120958679
  -OEChem-05122015083D

 24 24  0     1  0  0  0  0  0999 V2000
   53.4388  155.5957   -3.9519 C   0  0  0  0  0  0  0  0  0  0  0  0
   53.3086  156.9878   -5.7839 C   0  0  0  0  0  0  0  0  0  0  0  0
   54.5935  155.1906   -4.8253 C   0  0  0  0  0  0  0  0  0  0  0  0
   54.5419  156.1522   -6.0071 C   0  0  2  0  0  0  0  0  0  0  0  0
   58.4289  157.7223   -5.2619 C   0  0  0  0  0  0  0  0  0  0  0  0
   56.8273  156.4116   -6.6928 C   0  0  0  0  0  0  0  0  0  0  0  0
   58.0249  157.3584   -6.6843 C   0  0  1  0  0  0  0  0  0  0  0  0
   52.7513  156.5951   -4.5922 N   0  0  0  0  0  0  0  0  0  0  0  0
   55.6898  157.0465   -6.0402 N   0  0  0  0  0  0  0  0  0  0  0  0
   53.1730  155.0942   -2.8695 O   0  0  0  0  0  0  0  0  0  0  0  0
   52.9028  157.8677   -6.5293 O   0  0  0  0  0  0  0  0  0  0  0  0
   57.6663  158.5529   -7.3764 O   0  0  0  0  0  0  0  0  0  0  0  0
   55.5266  155.2510   -4.2559 H   0  0  0  0  0  0  0  0  0  0  0  0
   54.4487  154.1567   -5.1552 H   0  0  0  0  0  0  0  0  0  0  0  0
   54.4520  155.6065   -6.9520 H   0  0  0  0  0  0  0  0  0  0  0  0
   57.5963  158.1759   -4.7155 H   0  0  0  0  0  0  0  0  0  0  0  0
   58.7706  156.8379   -4.7128 H   0  0  0  0  0  0  0  0  0  0  0  0
   59.2652  158.4298   -5.2700 H   0  0  0  0  0  0  0  0  0  0  0  0
   56.5423  156.1541   -7.7185 H   0  0  0  0  0  0  0  0  0  0  0  0
   57.0628  155.4852   -6.1589 H   0  0  0  0  0  0  0  0  0  0  0  0
   58.8757  156.9070   -7.2077 H   0  0  0  0  0  0  0  0  0  0  0  0
   51.9044  157.0082   -4.2177 H   0  0  0  0  0  0  0  0  0  0  0  0
   55.4415  157.8941   -6.5504 H   0  0  0  0  0  0  0  0  0  0  0  0
   58.4510  159.1220   -7.3676 H   0  0  0  0  0  0  0  0  0  0  0  0
  1  3  1  0  0  0  0
  1  8  1  0  0  0  0
  1 10  2  0  0  0  0
  2  4  1  0  0  0  0
  2  8  1  0  0  0  0
  2 11  2  0  0  0  0
  3  4  1  0  0  0  0
  4  9  1  0  0  0  0
  5  7  1  0  0  0  0
  6  7  1  0  0  0  0
  6  9  1  0  0  0  0
  7 12  1  0  0  0  0
  3 13  1  0  0  0  0
  3 14  1  0  0  0  0
  4 15  1  0  0  0  0
  5 16  1  0  0  0  0
  5 17  1  0  0  0  0
  5 18  1  0  0  0  0
  6 19  1  0  0  0  0
  6 20  1  0  0  0  0
  7 21  1  0  0  0  0
  8 22  1  0  0  0  0
  9 23  1  0  0  0  0
 12 24  1  0  0  0  0
M  END
> <FRED Chemgauss4 score>
-5.984859

$$$$
C58851774	P89082394
  -OEChem-05122015083D

 23 23  0     0  0  0  0  0  0999 V2000
   56.3795  155.4325   -6.1251 C   0  0  0  0  0  0  0  0  0  0  0  0
   57.7444  156.8762   -5.4850 C   0  0  0  0  0  0  0  0  0  0  0  0
   54.6057  158.3863   -4.0002 C   0  0  0  0  0  0  0  0  0  0  0  0
   55.8399  154.2476   -6.8025 C   0  0  0  0  0  0  0  0  0  0  0  0
   58.9267  157.7133   -5.2133 C   0  0  0  0  0  0  0  0  0  0  0  0
   56.1090  158.2410   -4.1038 C   0  0  0  0  0  0  0  0  0  0  0  0
   57.6929  155.7926   -6.2245 N   0  0  0  0  0  0  0  0  0  0  0  0
   55.6151  156.2251   -5.3708 N   0  0  0  0  0  0  0  0  0  0  0  0
   56.5122  157.1402   -4.9735 N   0  0  0  0  0  0  0  0  0  0  0  0
   52.6740  158.8077   -5.3301 N   0  0  0  0  0  0  0  0  0  0  0  0
   54.0404  158.6401   -5.2387 N   0  0  0  0  0  0  0  0  0  0  0  0
   53.9896  158.2929   -2.9413 O   0  0  0  0  0  0  0  0  0  0  0  0
   55.9101  153.3481   -6.1639 H   0  0  0  0  0  0  0  0  0  0  0  0
   54.7762  154.3689   -7.0824 H   0  0  0  0  0  0  0  0  0  0  0  0
   56.3719  154.0220   -7.7464 H   0  0  0  0  0  0  0  0  0  0  0  0
   59.0306  158.5138   -5.9651 H   0  0  0  0  0  0  0  0  0  0  0  0
   58.8772  158.1933   -4.2201 H   0  0  0  0  0  0  0  0  0  0  0  0
   59.8622  157.1265   -5.2197 H   0  0  0  0  0  0  0  0  0  0  0  0
   56.5485  159.1633   -4.5004 H   0  0  0  0  0  0  0  0  0  0  0  0
   56.5308  158.0627   -3.1082 H   0  0  0  0  0  0  0  0  0  0  0  0
   52.3899  158.4317   -6.2339 H   0  0  0  0  0  0  0  0  0  0  0  0
   52.2538  158.1997   -4.6281 H   0  0  0  0  0  0  0  0  0  0  0  0
   54.5912  158.7089   -6.0887 H   0  0  0  0  0  0  0  0  0  0  0  0
  1  4  1  0  0  0  0
  1  7  1  0  0  0  0
  1  8  2  0  0  0  0
  2  5  1  0  0  0  0
  2  7  2  0  0  0  0
  2  9  1  0  0  0  0
  3  6  1  0  0  0  0
  3 11  1  0  0  0  0
  3 12  2  0  0  0  0
  6  9  1  0  0  0  0
  8  9  1  0  0  0  0
 10 11  1  0  0  0  0
  4 13  1  0  0  0  0
  4 14  1  0  0  0  0
  4 15  1  0  0  0  0
  5 16  1  0  0  0  0
  5 17  1  0  0  0  0
  5 18  1  0  0  0  0
  6 19  1  0  0  0  0
  6 20  1  0  0  0  0
 10 21  1  0  0  0  0
 10 22  1  0  0  0  0
 11 23  1  0  0  0  0
M  END
> <FRED Chemgauss4 score>
-5.984818

$$$$
C87651822	P137104705
  -OEChem-05122015083D

 24 25  0     0  0  0  0  0  0999 V2000
   55.2688  158.5066   -2.5243 C   0  0  0  0  0  0  0  0  0  0  0  0
   53.1546  156.4188   -5.9667 C   0  0  0  0  0  0  0  0  0  0  0  0
   53.3727  158.4527   -5.3512 C   0  0  0  0  0  0  0  0  0  0  0  0
   54.1826  157.1640   -5.0863 C   0  0  0  0  0  0  0  0  0  0  0  0
   52.8948  157.7783   -6.6600 C   0  0  0  0  0  0  0  0  0  0  0  0
   55.1985  157.0588   -2.9155 C   0  0  0  0  0  0  0  0  0  0  0  0
   56.2846  159.3164   -2.8790 N   0  5  0  0  0  0  0  0  0  0  0  0
   54.3220  159.1164   -1.7860 N   0  0  0  0  0  0  0  0  0  0  0  0
   55.9529  160.5107   -2.3273 N   0  0  0  0  0  0  0  0  0  0  0  0
   54.7739  160.3906   -1.6707 N   0  0  0  0  0  0  0  0  0  0  0  0
   54.0063  156.7630   -3.6981 N   0  0  0  0  0  0  0  0  0  0  0  0
   51.4804  158.0210   -6.9613 N   0  3  0  0  0  0  0  0  0  0  0  0
   53.5724  155.6411   -6.6133 H   0  0  0  0  0  0  0  0  0  0  0  0
   52.2837  156.0041   -5.4429 H   0  0  0  0  0  0  0  0  0  0  0  0
   52.5705  158.6710   -4.6346 H   0  0  0  0  0  0  0  0  0  0  0  0
   53.9717  159.3582   -5.4872 H   0  0  0  0  0  0  0  0  0  0  0  0
   55.2061  157.1636   -5.4598 H   0  0  0  0  0  0  0  0  0  0  0  0
   53.5439  157.9698   -7.5228 H   0  0  0  0  0  0  0  0  0  0  0  0
   56.0725  156.7774   -3.5129 H   0  0  0  0  0  0  0  0  0  0  0  0
   55.1873  156.4129   -2.0313 H   0  0  0  0  0  0  0  0  0  0  0  0
   53.8192  155.7616   -3.6598 H   0  0  0  0  0  0  0  0  0  0  0  0
   51.0530  158.6801   -6.2924 H   0  0  0  0  0  0  0  0  0  0  0  0
   50.9259  157.1514   -6.9243 H   0  0  0  0  0  0  0  0  0  0  0  0
   51.3518  158.4212   -7.9036 H   0  0  0  0  0  0  0  0  0  0  0  0
  1  6  1  0  0  0  0
  1  7  1  0  0  0  0
  1  8  2  0  0  0  0
  2  4  1  0  0  0  0
  2  5  1  0  0  0  0
  3  4  1  0  0  0  0
  3  5  1  0  0  0  0
  4 11  1  0  0  0  0
  5 12  1  0  0  0  0
  6 11  1  0  0  0  0
  7  9  1  0  0  0  0
  8 10  1  0  0  0  0
  9 10  2  0  0  0  0
  2 13  1  0  0  0  0
  2 14  1  0  0  0  0
  3 15  1  0  0  0  0
  3 16  1  0  0  0  0
  4 17  1  0  0  0  0
  5 18  1  0  0  0  0
  6 19  1  0  0  0  0
  6 20  1  0  0  0  0
 11 21  1  0  0  0  0
 12 22  1  0  0  0  0
 12 23  1  0  0  0  0
 12 24  1  0  0  0  0
M  CHG  2   7  -1  12   1
M  END
> <FRED Chemgauss4 score>
-5.982525

$$$$
C97534945	P154539649
  -OEChem-05122015083D

 38 40  0     1  0  0  0  0  0999 V2000
   56.5606  155.8233   -5.7834 C   0  0  0  0  0  0  0  0  0  0  0  0
   57.7428  155.4469   -6.4184 C   0  0  0  0  0  0  0  0  0  0  0  0
   56.5874  157.8818   -7.0222 C   0  0  0  0  0  0  0  0  0  0  0  0
   60.0486  156.7278   -8.8505 C   0  0  0  0  0  0  0  0  0  0  0  0
   59.4756  157.9350   -9.1500 C   0  0  0  0  0  0  0  0  0  0  0  0
   55.9804  157.0460   -6.0865 C   0  0  0  0  0  0  0  0  0  0  0  0
   58.3575  156.2748   -7.3549 C   0  0  0  0  0  0  0  0  0  0  0  0
   57.7688  157.5152   -7.6625 C   0  0  0  0  0  0  0  0  0  0  0  0
   55.7145  158.8956   -1.1562 C   0  0  0  0  0  0  0  0  0  0  0  0
   56.9964  158.8084   -1.6574 C   0  0  0  0  0  0  0  0  0  0  0  0
   55.2908  157.6882   -2.9373 C   0  0  0  0  0  0  0  0  0  0  0  0
   55.3086  159.6072    0.0732 C   0  0  0  0  0  0  0  0  0  0  0  0
   58.2608  159.3683   -1.1389 C   0  0  0  0  0  0  0  0  0  0  0  0
   54.5381  156.8932   -3.9799 C   0  0  0  0  0  0  0  0  0  0  0  0
   54.7161  157.4644   -5.4169 C   0  0  2  0  0  0  0  0  0  0  0  0
   59.4978  155.8895   -7.9541 N   0  0  0  0  0  0  0  0  0  0  0  0
   58.3353  158.3389   -8.5617 N   0  0  0  0  0  0  0  0  0  0  0  0
   54.7351  158.2542   -1.8890 N   0  0  0  0  0  0  0  0  0  0  0  0
   52.4457  157.9094   -5.7564 N   0  0  0  0  0  0  0  0  0  0  0  0
   53.5248  157.1099   -6.2195 N   0  0  0  0  0  0  0  0  0  0  0  0
   56.9872  157.8866   -3.1036 S   0  0  0  0  0  0  0  0  0  0  0  0
   56.1052  155.1564   -5.0567 H   0  0  0  0  0  0  0  0  0  0  0  0
   58.1872  154.4848   -6.1711 H   0  0  0  0  0  0  0  0  0  0  0  0
   56.1283  158.8410   -7.2572 H   0  0  0  0  0  0  0  0  0  0  0  0
   60.9661  156.3934   -9.3176 H   0  0  0  0  0  0  0  0  0  0  0  0
   59.9106  158.6172   -9.8693 H   0  0  0  0  0  0  0  0  0  0  0  0
   55.0441  160.6544   -0.1445 H   0  0  0  0  0  0  0  0  0  0  0  0
   54.4370  159.1335    0.5553 H   0  0  0  0  0  0  0  0  0  0  0  0
   56.1108  159.6133    0.8302 H   0  0  0  0  0  0  0  0  0  0  0  0
   58.7557  158.6615   -0.4531 H   0  0  0  0  0  0  0  0  0  0  0  0
   58.9715  159.6033   -1.9491 H   0  0  0  0  0  0  0  0  0  0  0  0
   58.1004  160.3119   -0.5903 H   0  0  0  0  0  0  0  0  0  0  0  0
   53.4776  156.8877   -3.6913 H   0  0  0  0  0  0  0  0  0  0  0  0
   54.8547  155.8425   -3.9417 H   0  0  0  0  0  0  0  0  0  0  0  0
   54.6851  158.5677   -5.3338 H   0  0  0  0  0  0  0  0  0  0  0  0
   52.7867  158.5912   -5.0793 H   0  0  0  0  0  0  0  0  0  0  0  0
   52.0964  158.4516   -6.5456 H   0  0  0  0  0  0  0  0  0  0  0  0
   53.3222  156.1297   -6.0714 H   0  0  0  0  0  0  0  0  0  0  0  0
  1  2  2  0  0  0  0
  1  6  1  0  0  0  0
  2  7  1  0  0  0  0
  3  6  2  0  0  0  0
  3  8  1  0  0  0  0
  4  5  2  0  0  0  0
  4 16  1  0  0  0  0
  5 17  1  0  0  0  0
  6 15  1  0  0  0  0
  7  8  1  0  0  0  0
  7 16  2  0  0  0  0
  8 17  2  0  0  0  0
  9 10  2  0  0  0  0
  9 12  1  0  0  0  0
  9 18  1  0  0  0  0
 10 13  1  0  0  0  0
 10 21  1  0  0  0  0
 11 14  1  0  0  0  0
 11 18  2  0  0  0  0
 11 21  1  0  0  0  0
 14 15  1  0  0  0  0
 15 20  1  0  0  0  0
 19 20  1  0  0  0  0
  1 22  1  0  0  0  0
  2 23  1  0  0  0  0
  3 24  1  0  0  0  0
  4 25  1  0  0  0  0
  5 26  1  0  0  0  0
 12 27  1  0  0  0  0
 12 28  1  0  0  0  0
 12 29  1  0  0  0  0
 13 30  1  0  0  0  0
 13 31  1  0  0  0  0
 13 32  1  0  0  0  0
 14 33  1  0  0  0  0
 14 34  1  0  0  0  0
 15 35  1  0  0  0  0
 19 36  1  0  0  0  0
 19 37  1  0  0  0  0
 20 38  1  0  0  0  0
M  END
> <FRED Chemgauss4 score>
-5.982433

$$$$
C37730151	P56098300
  -OEChem-05122015083D

 24 24  0     1  0  0  0  0  0999 V2000
   56.7414  157.2131   -5.6503 C   0  0  0  0  0  0  0  0  0  0  0  0
   58.7743  156.7964   -5.4248 C   0  0  0  0  0  0  0  0  0  0  0  0
   54.4004  155.2247   -5.9820 C   0  0  0  0  0  0  0  0  0  0  0  0
   53.2326  155.3848   -3.7980 C   0  0  0  0  0  0  0  0  0  0  0  0
   56.2303  153.4976   -6.2050 C   0  0  0  0  0  0  0  0  0  0  0  0
   55.7939  154.9267   -6.5368 C   0  0  2  0  0  0  0  0  0  0  0  0
   57.9214  157.7814   -5.2641 N   0  0  0  0  0  0  0  0  0  0  0  0
   58.1211  155.6962   -5.8860 N   0  0  0  0  0  0  0  0  0  0  0  0
   56.8104  155.9383   -6.0398 N   0  0  0  0  0  0  0  0  0  0  0  0
   60.0915  156.9353   -5.1500 N   0  0  0  0  0  0  0  0  0  0  0  0
   52.1211  155.6768   -4.5695 N   0  0  0  0  0  0  0  0  0  0  0  0
   54.3657  155.1645   -4.5867 N   0  0  0  0  0  0  0  0  0  0  0  0
   53.4369  155.4799   -6.7009 O   0  0  0  0  0  0  0  0  0  0  0  0
   53.1995  155.3325   -2.5701 O   0  0  0  0  0  0  0  0  0  0  0  0
   55.8095  157.7642   -5.6399 H   0  0  0  0  0  0  0  0  0  0  0  0
   56.3299  153.3355   -5.1258 H   0  0  0  0  0  0  0  0  0  0  0  0
   57.1956  153.2650   -6.6680 H   0  0  0  0  0  0  0  0  0  0  0  0
   55.4945  152.7752   -6.5757 H   0  0  0  0  0  0  0  0  0  0  0  0
   55.7219  154.9921   -7.6313 H   0  0  0  0  0  0  0  0  0  0  0  0
   60.4939  157.8331   -4.8473 H   0  0  0  0  0  0  0  0  0  0  0  0
   60.7670  156.1777   -5.3208 H   0  0  0  0  0  0  0  0  0  0  0  0
   52.2146  155.7049   -5.5792 H   0  0  0  0  0  0  0  0  0  0  0  0
   51.2156  155.8633   -4.1522 H   0  0  0  0  0  0  0  0  0  0  0  0
   55.2266  154.9397   -4.0953 H   0  0  0  0  0  0  0  0  0  0  0  0
  1  7  2  0  0  0  0
  1  9  1  0  0  0  0
  2  7  1  0  0  0  0
  2  8  2  0  0  0  0
  2 10  1  0  0  0  0
  3  6  1  0  0  0  0
  3 12  1  0  0  0  0
  3 13  2  0  0  0  0
  4 11  1  0  0  0  0
  4 12  1  0  0  0  0
  4 14  2  0  0  0  0
  5  6  1  0  0  0  0
  6  9  1  0  0  0  0
  8  9  1  0  0  0  0
  1 15  1  0  0  0  0
  5 16  1  0  0  0  0
  5 17  1  0  0  0  0
  5 18  1  0  0  0  0
  6 19  1  0  0  0  0
 10 20  1  0  0  0  0
 10 21  1  0  0  0  0
 11 22  1  0  0  0  0
 11 23  1  0  0  0  0
 12 24  1  0  0  0  0
M  END
> <FRED Chemgauss4 score>
-5.981987

$$$$
C86591349	P135571780
  -OEChem-05122015083D

 26 26  0     1  0  0  0  0  0999 V2000
   54.7822  155.3173   -5.5190 C   0  0  0  0  0  0  0  0  0  0  0  0
   54.4020  157.0736   -4.4571 C   0  0  0  0  0  0  0  0  0  0  0  0
   56.8836  154.6627   -6.7456 C   0  0  0  0  0  0  0  0  0  0  0  0
   55.1874  159.4764   -4.4137 C   0  0  0  0  0  0  0  0  0  0  0  0
   55.2063  152.3850   -7.5860 C   0  0  0  0  0  0  0  0  0  0  0  0
   55.5257  154.2293   -6.1651 C   0  0  2  0  0  0  0  0  0  0  0  0
   54.4510  158.3648   -3.6689 C   0  0  2  0  0  0  0  0  0  0  0  0
   55.4105  156.3459   -4.8773 N   0  0  0  0  0  0  0  0  0  0  0  0
   53.4483  155.3629   -5.5223 N   0  0  0  0  0  0  0  0  0  0  0  0
   53.2309  156.4955   -4.8368 N   0  0  0  0  0  0  0  0  0  0  0  0
   55.0297  158.1591   -2.3609 N   0  0  0  0  0  0  0  0  0  0  0  0
   54.7524  153.6815   -7.2496 O   0  0  0  0  0  0  0  0  0  0  0  0
   56.7596  155.5077   -7.4303 H   0  0  0  0  0  0  0  0  0  0  0  0
   57.3561  153.8398   -7.2938 H   0  0  0  0  0  0  0  0  0  0  0  0
   57.5867  154.9528   -5.9571 H   0  0  0  0  0  0  0  0  0  0  0  0
   56.2218  159.1881   -4.6303 H   0  0  0  0  0  0  0  0  0  0  0  0
   54.6900  159.6959   -5.3651 H   0  0  0  0  0  0  0  0  0  0  0  0
   55.2098  160.4095   -3.8396 H   0  0  0  0  0  0  0  0  0  0  0  0
   54.6061  151.9902   -8.4094 H   0  0  0  0  0  0  0  0  0  0  0  0
   55.1231  151.7312   -6.7142 H   0  0  0  0  0  0  0  0  0  0  0  0
   56.2523  152.4439   -7.8962 H   0  0  0  0  0  0  0  0  0  0  0  0
   55.7265  153.3733   -5.4836 H   0  0  0  0  0  0  0  0  0  0  0  0
   53.4270  158.7108   -3.4817 H   0  0  0  0  0  0  0  0  0  0  0  0
   52.2784  156.8001   -4.6733 H   0  0  0  0  0  0  0  0  0  0  0  0
   54.8549  157.2924   -1.8847 H   0  0  0  0  0  0  0  0  0  0  0  0
   55.4163  158.9473   -1.8730 H   0  0  0  0  0  0  0  0  0  0  0  0
  1  6  1  0  0  0  0
  1  8  1  0  0  0  0
  1  9  2  0  0  0  0
  2  7  1  0  0  0  0
  2  8  2  0  0  0  0
  2 10  1  0  0  0  0
  3  6  1  0  0  0  0
  4  7  1  0  0  0  0
  5 12  1  0  0  0  0
  6 12  1  0  0  0  0
  7 11  1  0  0  0  0
  9 10  1  0  0  0  0
  3 13  1  0  0  0  0
  3 14  1  0  0  0  0
  3 15  1  0  0  0  0
  4 16  1  0  0  0  0
  4 17  1  0  0  0  0
  4 18  1  0  0  0  0
  5 19  1  0  0  0  0
  5 20  1  0  0  0  0
  5 21  1  0  0  0  0
  6 22  1  0  0  0  0
  7 23  1  0  0  0  0
 10 24  1  0  0  0  0
 11 25  1  0  0  0  0
 11 26  1  0  0  0  0
M  END
> <FRED Chemgauss4 score>
-5.972789

$$$$
C88371168	P138217588
  -OEChem-05122015083D

 46 47  0     1  0  0  0  0  0999 V2000
   55.0276  158.0959   -2.9687 C   0  0  0  0  0  0  0  0  0  0  0  0
   59.0995  161.1434   -3.4069 C   0  0  0  0  0  0  0  0  0  0  0  0
   57.6982  160.0525   -1.6641 C   0  0  0  0  0  0  0  0  0  0  0  0
   58.5192  158.7240   -3.6701 C   0  0  0  0  0  0  0  0  0  0  0  0
   56.3178  160.1036   -2.3164 C   0  0  0  0  0  0  0  0  0  0  0  0
   57.1069  158.8003   -4.2518 C   0  0  0  0  0  0  0  0  0  0  0  0
   53.8781  156.2835   -5.9676 C   0  0  0  0  0  0  0  0  0  0  0  0
   53.2059  155.1207   -5.2455 C   0  0  0  0  0  0  0  0  0  0  0  0
   54.1998  155.7632   -3.2100 C   0  0  0  0  0  0  0  0  0  0  0  0
   54.8907  156.9351   -3.8990 C   0  0  1  0  0  0  0  0  0  0  0  0
   58.8238  159.8568   -2.6846 C   0  0  0  0  0  0  0  0  0  0  0  0
   61.6507  163.0244   -4.4184 C   0  0  0  0  0  0  0  0  0  0  0  0
   60.5779  162.1925   -5.1087 C   0  0  0  0  0  0  0  0  0  0  0  0
   62.0970  164.2207   -5.2503 C   0  0  0  0  0  0  0  0  0  0  0  0
   54.1066  157.4024   -5.0465 N   0  0  0  0  0  0  0  0  0  0  0  0
   56.1117  158.9455   -3.1852 N   0  0  0  0  0  0  0  0  0  0  0  0
   60.1458  161.0705   -4.3065 N   0  0  0  0  0  0  0  0  0  0  0  0
   54.1971  158.2486   -2.0691 O   0  0  0  0  0  0  0  0  0  0  0  0
   58.4129  162.1298   -3.1674 O   0  0  0  0  0  0  0  0  0  0  0  0
   54.0031  154.6946   -4.1386 O   0  0  0  0  0  0  0  0  0  0  0  0
   63.1056  164.9234   -4.5366 O   0  0  0  0  0  0  0  0  0  0  0  0
   57.8589  160.9668   -1.0806 H   0  0  0  0  0  0  0  0  0  0  0  0
   57.7206  159.2122   -0.9580 H   0  0  0  0  0  0  0  0  0  0  0  0
   58.6239  157.7688   -3.1392 H   0  0  0  0  0  0  0  0  0  0  0  0
   59.2491  158.7177   -4.4882 H   0  0  0  0  0  0  0  0  0  0  0  0
   55.5471  160.1512   -1.5405 H   0  0  0  0  0  0  0  0  0  0  0  0
   56.2116  161.0028   -2.9343 H   0  0  0  0  0  0  0  0  0  0  0  0
   57.0047  159.6698   -4.9111 H   0  0  0  0  0  0  0  0  0  0  0  0
   56.9235  157.9161   -4.8649 H   0  0  0  0  0  0  0  0  0  0  0  0
   54.8352  155.9610   -6.3904 H   0  0  0  0  0  0  0  0  0  0  0  0
   53.2547  156.6208   -6.8033 H   0  0  0  0  0  0  0  0  0  0  0  0
   52.2348  155.4399   -4.8517 H   0  0  0  0  0  0  0  0  0  0  0  0
   53.0256  154.2725   -5.9186 H   0  0  0  0  0  0  0  0  0  0  0  0
   54.7976  155.4005   -2.3738 H   0  0  0  0  0  0  0  0  0  0  0  0
   53.2202  156.0545   -2.8346 H   0  0  0  0  0  0  0  0  0  0  0  0
   55.8798  156.6627   -4.2156 H   0  0  0  0  0  0  0  0  0  0  0  0
   59.7484  159.6171   -2.1445 H   0  0  0  0  0  0  0  0  0  0  0  0
   61.2662  163.3846   -3.4560 H   0  0  0  0  0  0  0  0  0  0  0  0
   62.5227  162.4028   -4.1791 H   0  0  0  0  0  0  0  0  0  0  0  0
   59.6925  162.8061   -5.3020 H   0  0  0  0  0  0  0  0  0  0  0  0
   60.9383  161.8009   -6.0653 H   0  0  0  0  0  0  0  0  0  0  0  0
   62.5130  163.9028   -6.2114 H   0  0  0  0  0  0  0  0  0  0  0  0
   61.2605  164.9032   -5.4317 H   0  0  0  0  0  0  0  0  0  0  0  0
   54.6458  158.1025   -5.5273 H   0  0  0  0  0  0  0  0  0  0  0  0
   60.6346  160.1862   -4.4090 H   0  0  0  0  0  0  0  0  0  0  0  0
   63.3676  165.6763   -5.0907 H   0  0  0  0  0  0  0  0  0  0  0  0
  1 10  1  0  0  0  0
  1 16  1  0  0  0  0
  1 18  2  0  0  0  0
  2 11  1  0  0  0  0
  2 17  1  0  0  0  0
  2 19  2  0  0  0  0
  3  5  1  0  0  0  0
  3 11  1  0  0  0  0
  4  6  1  0  0  0  0
  4 11  1  0  0  0  0
  5 16  1  0  0  0  0
  6 16  1  0  0  0  0
  7  8  1  0  0  0  0
  7 15  1  0  0  0  0
  8 20  1  0  0  0  0
  9 10  1  0  0  0  0
  9 20  1  0  0  0  0
 10 15  1  0  0  0  0
 12 13  1  0  0  0  0
 12 14  1  0  0  0  0
 13 17  1  0  0  0  0
 14 21  1  0  0  0  0
  3 22  1  0  0  0  0
  3 23  1  0  0  0  0
  4 24  1  0  0  0  0
  4 25  1  0  0  0  0
  5 26  1  0  0  0  0
  5 27  1  0  0  0  0
  6 28  1  0  0  0  0
  6 29  1  0  0  0  0
  7 30  1  0  0  0  0
  7 31  1  0  0  0  0
  8 32  1  0  0  0  0
  8 33  1  0  0  0  0
  9 34  1  0  0  0  0
  9 35  1  0  0  0  0
 10 36  1  0  0  0  0
 11 37  1  0  0  0  0
 12 38  1  0  0  0  0
 12 39  1  0  0  0  0
 13 40  1  0  0  0  0
 13 41  1  0  0  0  0
 14 42  1  0  0  0  0
 14 43  1  0  0  0  0
 15 44  1  0  0  0  0
 17 45  1  0  0  0  0
 21 46  1  0  0  0  0
M  END
> <FRED Chemgauss4 score>
-5.972148

$$$$
C88067457	P137750758
  -OEChem-05122015083D

 29 29  0     1  0  0  0  0  0999 V2000
   58.9757  156.9832   -7.3104 C   0  0  0  0  0  0  0  0  0  0  0  0
   58.3593  154.7034   -6.8006 C   0  0  0  0  0  0  0  0  0  0  0  0
   60.2715  156.5651   -7.6132 C   0  0  0  0  0  0  0  0  0  0  0  0
   59.6551  154.2853   -7.1034 C   0  0  0  0  0  0  0  0  0  0  0  0
   58.0196  156.0523   -6.9040 C   0  0  0  0  0  0  0  0  0  0  0  0
   60.6112  155.2162   -7.5097 C   0  0  0  0  0  0  0  0  0  0  0  0
   53.5606  156.7630   -5.4437 C   0  0  0  0  0  0  0  0  0  0  0  0
   56.6247  156.5020   -6.5787 C   0  0  0  0  0  0  0  0  0  0  0  0
   54.5460  157.7395   -3.3012 C   0  0  0  0  0  0  0  0  0  0  0  0
   54.7997  157.3324   -4.7572 C   0  0  1  0  0  0  0  0  0  0  0  0
   54.0815  156.6120   -2.4998 N   0  0  0  0  0  0  0  0  0  0  0  0
   55.5045  154.7550   -4.8638 O   0  0  0  0  0  0  0  0  0  0  0  0
   61.8754  154.8082   -7.8064 O   0  0  0  0  0  0  0  0  0  0  0  0
   56.1590  156.0942   -4.7994 S   0  0  1  0  0  0  0  0  0  0  0  0
   58.7199  158.0360   -7.3937 H   0  0  0  0  0  0  0  0  0  0  0  0
   57.6207  153.9711   -6.4846 H   0  0  0  0  0  0  0  0  0  0  0  0
   61.0119  157.2950   -7.9295 H   0  0  0  0  0  0  0  0  0  0  0  0
   59.9133  153.2333   -7.0212 H   0  0  0  0  0  0  0  0  0  0  0  0
   53.1632  155.8983   -4.9008 H   0  0  0  0  0  0  0  0  0  0  0  0
   52.7660  157.5129   -5.5131 H   0  0  0  0  0  0  0  0  0  0  0  0
   53.7906  156.4357   -6.4637 H   0  0  0  0  0  0  0  0  0  0  0  0
   56.5272  157.5848   -6.7116 H   0  0  0  0  0  0  0  0  0  0  0  0
   55.8942  156.0258   -7.2414 H   0  0  0  0  0  0  0  0  0  0  0  0
   55.4610  158.1415   -2.8505 H   0  0  0  0  0  0  0  0  0  0  0  0
   53.7920  158.5343   -3.2569 H   0  0  0  0  0  0  0  0  0  0  0  0
   55.1672  158.1933   -5.3279 H   0  0  0  0  0  0  0  0  0  0  0  0
   53.5321  156.8054   -1.6900 H   0  0  0  0  0  0  0  0  0  0  0  0
   54.4906  155.7174   -2.6654 H   0  0  0  0  0  0  0  0  0  0  0  0
   61.9558  153.8484   -7.6873 H   0  0  0  0  0  0  0  0  0  0  0  0
  1  3  2  0  0  0  0
  1  5  1  0  0  0  0
  2  4  1  0  0  0  0
  2  5  2  0  0  0  0
  3  6  1  0  0  0  0
  4  6  2  0  0  0  0
  5  8  1  0  0  0  0
  6 13  1  0  0  0  0
  7 10  1  0  0  0  0
  8 14  1  0  0  0  0
  9 10  1  0  0  0  0
  9 11  1  0  0  0  0
 10 14  1  0  0  0  0
 12 14  2  0  0  0  0
  1 15  1  0  0  0  0
  2 16  1  0  0  0  0
  3 17  1  0  0  0  0
  4 18  1  0  0  0  0
  7 19  1  0  0  0  0
  7 20  1  0  0  0  0
  7 21  1  0  0  0  0
  8 22  1  0  0  0  0
  8 23  1  0  0  0  0
  9 24  1  0  0  0  0
  9 25  1  0  0  0  0
 10 26  1  0  0  0  0
 11 27  1  0  0  0  0
 11 28  1  0  0  0  0
 13 29  1  0  0  0  0
M  END
> <FRED Chemgauss4 score>
-5.971673

$$$$
C22061976	P32822232
  -OEChem-05122015083D

 23 23  0     1  0  0  0  0  0999 V2000
   53.7008  156.1725   -3.6444 C   0  0  0  0  0  0  0  0  0  0  0  0
   53.4664  154.8494   -4.3568 C   0  0  2  0  0  0  0  0  0  0  0  0
   53.8775  154.8426   -5.8265 C   0  0  2  0  0  0  0  0  0  0  0  0
   55.2929  155.3919   -5.9952 C   0  0  1  0  0  0  0  0  0  0  0  0
   55.4076  156.8052   -5.4055 C   0  0  2  0  0  0  0  0  0  0  0  0
   56.8538  157.2880   -5.3155 C   0  0  0  0  0  0  0  0  0  0  0  0
   54.7540  156.9352   -4.1033 N   0  0  0  0  0  0  0  0  0  0  0  0
   53.0278  156.5026   -2.6665 O   0  0  0  0  0  0  0  0  0  0  0  0
   52.1084  154.4674   -4.2191 O   0  0  0  0  0  0  0  0  0  0  0  0
   52.9581  155.6023   -6.6087 O   0  0  0  0  0  0  0  0  0  0  0  0
   56.2315  154.5028   -5.3951 O   0  0  0  0  0  0  0  0  0  0  0  0
   56.8516  158.7008   -5.2279 O   0  0  0  0  0  0  0  0  0  0  0  0
   54.0708  154.1042   -3.8164 H   0  0  0  0  0  0  0  0  0  0  0  0
   53.8272  153.7991   -6.1969 H   0  0  0  0  0  0  0  0  0  0  0  0
   55.5382  155.4451   -7.0729 H   0  0  0  0  0  0  0  0  0  0  0  0
   54.8640  157.4910   -6.0617 H   0  0  0  0  0  0  0  0  0  0  0  0
   57.4031  156.9823   -6.2056 H   0  0  0  0  0  0  0  0  0  0  0  0
   57.3295  156.8720   -4.4277 H   0  0  0  0  0  0  0  0  0  0  0  0
   55.1088  157.6539   -3.4793 H   0  0  0  0  0  0  0  0  0  0  0  0
   51.9331  154.3790   -3.2671 H   0  0  0  0  0  0  0  0  0  0  0  0
   53.2743  155.5577   -7.5238 H   0  0  0  0  0  0  0  0  0  0  0  0
   56.1364  153.6524   -5.8512 H   0  0  0  0  0  0  0  0  0  0  0  0
   57.7799  158.9852   -5.1717 H   0  0  0  0  0  0  0  0  0  0  0  0
  1  2  1  0  0  0  0
  1  7  1  0  0  0  0
  1  8  2  0  0  0  0
  2  3  1  0  0  0  0
  2  9  1  0  0  0  0
  3  4  1  0  0  0  0
  3 10  1  0  0  0  0
  4  5  1  0  0  0  0
  4 11  1  0  0  0  0
  5  6  1  0  0  0  0
  5  7  1  0  0  0  0
  6 12  1  0  0  0  0
  2 13  1  0  0  0  0
  3 14  1  0  0  0  0
  4 15  1  0  0  0  0
  5 16  1  0  0  0  0
  6 17  1  0  0  0  0
  6 18  1  0  0  0  0
  7 19  1  0  0  0  0
  9 20  1  0  0  0  0
 10 21  1  0  0  0  0
 11 22  1  0  0  0  0
 12 23  1  0  0  0  0
M  END
> <FRED Chemgauss4 score>
-5.969171

$$$$
C70646602	P108984036
  -OEChem-05122015083D

 23 23  0     0  0  0  0  0  0999 V2000
   59.4671  158.1144   -5.1543 C   0  0  0  0  0  0  0  0  0  0  0  0
   57.8653  156.9975   -5.8916 C   0  0  0  0  0  0  0  0  0  0  0  0
   54.9259  155.6787   -3.0248 C   0  0  0  0  0  0  0  0  0  0  0  0
   56.5194  156.5085   -6.3675 C   0  0  0  0  0  0  0  0  0  0  0  0
   54.7888  156.6269   -1.8610 C   0  0  0  0  0  0  0  0  0  0  0  0
   55.8187  155.6102   -5.3512 C   0  0  0  0  0  0  0  0  0  0  0  0
   58.1349  158.2008   -5.4415 N   0  0  0  0  0  0  0  0  0  0  0  0
   58.9928  156.2372   -5.8692 N   0  0  0  0  0  0  0  0  0  0  0  0
   60.0387  156.9333   -5.3985 N   0  0  0  0  0  0  0  0  0  0  0  0
   53.9884  157.7919   -2.2655 N   0  0  0  0  0  0  0  0  0  0  0  0
   55.5536  156.2873   -4.1022 N   0  0  0  0  0  0  0  0  0  0  0  0
   54.5277  154.5172   -3.0007 O   0  0  0  0  0  0  0  0  0  0  0  0
   60.0257  158.9503   -4.7539 H   0  0  0  0  0  0  0  0  0  0  0  0
   56.6616  155.9544   -7.3039 H   0  0  0  0  0  0  0  0  0  0  0  0
   55.8807  157.3652   -6.6178 H   0  0  0  0  0  0  0  0  0  0  0  0
   54.2915  156.1196   -1.0290 H   0  0  0  0  0  0  0  0  0  0  0  0
   55.7783  156.9650   -1.5396 H   0  0  0  0  0  0  0  0  0  0  0  0
   54.8508  155.2851   -5.7456 H   0  0  0  0  0  0  0  0  0  0  0  0
   56.4117  154.7181   -5.1240 H   0  0  0  0  0  0  0  0  0  0  0  0
   60.9707  156.5389   -5.3049 H   0  0  0  0  0  0  0  0  0  0  0  0
   54.1090  158.6325   -1.7521 H   0  0  0  0  0  0  0  0  0  0  0  0
   53.2300  157.6347   -2.8859 H   0  0  0  0  0  0  0  0  0  0  0  0
   55.8412  157.2571   -4.0085 H   0  0  0  0  0  0  0  0  0  0  0  0
  1  7  2  0  0  0  0
  1  9  1  0  0  0  0
  2  4  1  0  0  0  0
  2  7  1  0  0  0  0
  2  8  2  0  0  0  0
  3  5  1  0  0  0  0
  3 11  1  0  0  0  0
  3 12  2  0  0  0  0
  4  6  1  0  0  0  0
  5 10  1  0  0  0  0
  6 11  1  0  0  0  0
  8  9  1  0  0  0  0
  1 13  1  0  0  0  0
  4 14  1  0  0  0  0
  4 15  1  0  0  0  0
  5 16  1  0  0  0  0
  5 17  1  0  0  0  0
  6 18  1  0  0  0  0
  6 19  1  0  0  0  0
  9 20  1  0  0  0  0
 10 21  1  0  0  0  0
 10 22  1  0  0  0  0
 11 23  1  0  0  0  0
M  END
> <FRED Chemgauss4 score>
-5.967569

$$$$
C87572129	P136980498
  -OEChem-05122015083D

 22 23  0     1  0  0  0  0  0999 V2000
   59.2456  156.0132   -6.7771 C   0  0  0  0  0  0  0  0  0  0  0  0
   59.8720  154.1500   -7.7498 C   0  0  0  0  0  0  0  0  0  0  0  0
   58.0659  155.3092   -6.6558 C   0  0  0  0  0  0  0  0  0  0  0  0
   56.8301  155.8097   -6.0289 C   0  0  0  0  0  0  0  0  0  0  0  0
   54.8828  155.8739   -5.3337 C   0  0  0  0  0  0  0  0  0  0  0  0
   53.2367  155.8136   -3.4122 C   0  0  0  0  0  0  0  0  0  0  0  0
   53.4413  155.6656   -4.9222 C   0  0  1  0  0  0  0  0  0  0  0  0
   60.2825  155.3499   -7.4038 N   0  0  0  0  0  0  0  0  0  0  0  0
   55.6980  155.0525   -5.9455 N   0  0  0  0  0  0  0  0  0  0  0  0
   56.7485  157.0363   -5.5050 N   0  0  0  0  0  0  0  0  0  0  0  0
   52.5660  156.5621   -5.6468 N   0  0  0  0  0  0  0  0  0  0  0  0
   55.4302  157.0809   -5.0341 O   0  0  0  0  0  0  0  0  0  0  0  0
   53.5913  157.1352   -3.0181 O   0  0  0  0  0  0  0  0  0  0  0  0
   58.2502  153.7531   -7.3529 S   0  0  0  0  0  0  0  0  0  0  0  0
   59.4116  157.0228   -6.4236 H   0  0  0  0  0  0  0  0  0  0  0  0
   60.5174  153.4469   -8.2585 H   0  0  0  0  0  0  0  0  0  0  0  0
   52.1863  155.6582   -3.1425 H   0  0  0  0  0  0  0  0  0  0  0  0
   53.8530  155.1084   -2.8440 H   0  0  0  0  0  0  0  0  0  0  0  0
   53.1191  154.6590   -5.2177 H   0  0  0  0  0  0  0  0  0  0  0  0
   51.6611  156.7656   -5.2648 H   0  0  0  0  0  0  0  0  0  0  0  0
   52.7928  156.7943   -6.5960 H   0  0  0  0  0  0  0  0  0  0  0  0
   53.4481  157.1869   -2.0600 H   0  0  0  0  0  0  0  0  0  0  0  0
  1  3  2  0  0  0  0
  1  8  1  0  0  0  0
  2  8  2  0  0  0  0
  2 14  1  0  0  0  0
  3  4  1  0  0  0  0
  3 14  1  0  0  0  0
  4  9  1  0  0  0  0
  4 10  2  0  0  0  0
  5  7  1  0  0  0  0
  5  9  2  0  0  0  0
  5 12  1  0  0  0  0
  6  7  1  0  0  0  0
  6 13  1  0  0  0  0
  7 11  1  0  0  0  0
 10 12  1  0  0  0  0
  1 15  1  0  0  0  0
  2 16  1  0  0  0  0
  6 17  1  0  0  0  0
  6 18  1  0  0  0  0
  7 19  1  0  0  0  0
 11 20  1  0  0  0  0
 11 21  1  0  0  0  0
 13 22  1  0  0  0  0
M  END
> <FRED Chemgauss4 score>
-5.967484

$$$$
C87593473	P137019368
  -OEChem-05122015083D

 38 38  0     0  0  0  0  0  0999 V2000
   57.5164  160.7643    0.4944 C   0  0  0  0  0  0  0  0  0  0  0  0
   56.9869  159.4849    0.3263 C   0  0  0  0  0  0  0  0  0  0  0  0
   57.6239  161.6239   -0.5989 C   0  0  0  0  0  0  0  0  0  0  0  0
   56.6722  159.9246   -2.0284 C   0  0  0  0  0  0  0  0  0  0  0  0
   56.5648  159.0650   -0.9351 C   0  0  0  0  0  0  0  0  0  0  0  0
   57.2018  161.2040   -1.8603 C   0  0  0  0  0  0  0  0  0  0  0  0
   53.9486  158.2560   -4.9726 C   0  0  0  0  0  0  0  0  0  0  0  0
   52.9835  156.1491   -5.9287 C   0  0  0  0  0  0  0  0  0  0  0  0
   55.3314  156.1018   -5.1120 C   0  0  0  0  0  0  0  0  0  0  0  0
   55.9949  157.6878   -1.1154 C   0  0  0  0  0  0  0  0  0  0  0  0
   53.4183  156.2708   -3.4512 C   0  0  0  0  0  0  0  0  0  0  0  0
   54.4767  156.2915   -2.3425 C   0  0  0  0  0  0  0  0  0  0  0  0
   53.9361  156.7047   -4.8499 C   0  0  0  0  0  0  0  0  0  0  0  0
   55.0904  158.8320   -5.2251 N   0  0  0  0  0  0  0  0  0  0  0  0
   52.7430  158.9055   -4.8071 N   0  0  0  0  0  0  0  0  0  0  0  0
   55.0100  157.6417   -2.1859 N   0  0  0  0  0  0  0  0  0  0  0  0
   54.9307  160.2183   -5.3040 O   0  0  0  0  0  0  0  0  0  0  0  0
   57.3477  162.3692   -3.3412 Br  0  0  0  0  0  0  0  0  0  0  0  0
   57.8451  161.0912    1.4766 H   0  0  0  0  0  0  0  0  0  0  0  0
   56.9070  158.8222    1.1839 H   0  0  0  0  0  0  0  0  0  0  0  0
   58.0388  162.6176   -0.4507 H   0  0  0  0  0  0  0  0  0  0  0  0
   56.3410  159.5902   -3.0090 H   0  0  0  0  0  0  0  0  0  0  0  0
   52.9350  155.0550   -5.8892 H   0  0  0  0  0  0  0  0  0  0  0  0
   51.9625  156.5266   -5.8052 H   0  0  0  0  0  0  0  0  0  0  0  0
   53.3162  156.4361   -6.9330 H   0  0  0  0  0  0  0  0  0  0  0  0
   55.3129  155.0090   -5.0234 H   0  0  0  0  0  0  0  0  0  0  0  0
   56.0662  156.4784   -4.3913 H   0  0  0  0  0  0  0  0  0  0  0  0
   55.6993  156.3344   -6.1167 H   0  0  0  0  0  0  0  0  0  0  0  0
   56.7873  156.9704   -1.3550 H   0  0  0  0  0  0  0  0  0  0  0  0
   55.5085  157.3405   -0.1977 H   0  0  0  0  0  0  0  0  0  0  0  0
   52.5808  156.9143   -3.1507 H   0  0  0  0  0  0  0  0  0  0  0  0
   53.0032  155.2559   -3.5255 H   0  0  0  0  0  0  0  0  0  0  0  0
   55.3029  155.6157   -2.5832 H   0  0  0  0  0  0  0  0  0  0  0  0
   54.0471  155.9731   -1.3880 H   0  0  0  0  0  0  0  0  0  0  0  0
   51.8792  158.4102   -4.6163 H   0  0  0  0  0  0  0  0  0  0  0  0
   52.6862  159.9158   -4.8775 H   0  0  0  0  0  0  0  0  0  0  0  0
   54.2448  158.2777   -1.9686 H   0  0  0  0  0  0  0  0  0  0  0  0
   55.8391  160.5087   -5.4919 H   0  0  0  0  0  0  0  0  0  0  0  0
  1  2  2  0  0  0  0
  1  3  1  0  0  0  0
  2  5  1  0  0  0  0
  3  6  2  0  0  0  0
  4  5  2  0  0  0  0
  4  6  1  0  0  0  0
  5 10  1  0  0  0  0
  6 18  1  0  0  0  0
  7 13  1  0  0  0  0
  7 14  2  0  0  0  0
  7 15  1  0  0  0  0
  8 13  1  0  0  0  0
  9 13  1  0  0  0  0
 10 16  1  0  0  0  0
 11 12  1  0  0  0  0
 11 13  1  0  0  0  0
 12 16  1  0  0  0  0
 14 17  1  0  0  0  0
  1 19  1  0  0  0  0
  2 20  1  0  0  0  0
  3 21  1  0  0  0  0
  4 22  1  0  0  0  0
  8 23  1  0  0  0  0
  8 24  1  0  0  0  0
  8 25  1  0  0  0  0
  9 26  1  0  0  0  0
  9 27  1  0  0  0  0
  9 28  1  0  0  0  0
 10 29  1  0  0  0  0
 10 30  1  0  0  0  0
 11 31  1  0  0  0  0
 11 32  1  0  0  0  0
 12 33  1  0  0  0  0
 12 34  1  0  0  0  0
 15 35  1  0  0  0  0
 15 36  1  0  0  0  0
 16 37  1  0  0  0  0
 17 38  1  0  0  0  0
M  END
> <FRED Chemgauss4 score>
-5.964995

$$$$
C70842458	P128807509
  -OEChem-05122015083D

 24 25  0     1  0  0  0  0  0999 V2000
   55.9122  158.2603   -1.4889 C   0  0  0  0  0  0  0  0  0  0  0  0
   55.1114  157.9907   -2.5672 C   0  0  0  0  0  0  0  0  0  0  0  0
   54.4746  156.6942   -2.8478 C   0  0  0  0  0  0  0  0  0  0  0  0
   55.9482  155.5959   -6.0489 C   0  0  0  0  0  0  0  0  0  0  0  0
   55.7264  156.6665   -4.9884 C   0  0  0  0  0  0  0  0  0  0  0  0
   54.2474  154.8120   -4.5608 C   0  0  0  0  0  0  0  0  0  0  0  0
   54.6507  154.7959   -6.0294 C   0  0  1  0  0  0  0  0  0  0  0  0
   55.7496  160.0297   -2.6807 N   0  5  0  0  0  0  0  0  0  0  0  0
   56.3226  159.5393   -1.5440 N   0  0  0  0  0  0  0  0  0  0  0  0
   54.9981  159.0930   -3.3282 N   0  0  0  0  0  0  0  0  0  0  0  0
   54.7997  156.0645   -4.0396 N   0  0  0  0  0  0  0  0  0  0  0  0
   53.6147  155.5030   -6.8304 N   0  3  0  0  0  0  0  0  0  0  0  0
   53.7029  156.2487   -2.0006 O   0  0  0  0  0  0  0  0  0  0  0  0
   56.2009  157.5890   -0.6910 H   0  0  0  0  0  0  0  0  0  0  0  0
   56.1980  156.0210   -7.0256 H   0  0  0  0  0  0  0  0  0  0  0  0
   56.7772  154.9463   -5.7413 H   0  0  0  0  0  0  0  0  0  0  0  0
   56.6520  156.9671   -4.4881 H   0  0  0  0  0  0  0  0  0  0  0  0
   55.2490  157.5597   -5.4060 H   0  0  0  0  0  0  0  0  0  0  0  0
   53.1663  154.7574   -4.3981 H   0  0  0  0  0  0  0  0  0  0  0  0
   54.7306  153.9938   -4.0145 H   0  0  0  0  0  0  0  0  0  0  0  0
   54.7413  153.7906   -6.4490 H   0  0  0  0  0  0  0  0  0  0  0  0
   52.7647  154.9369   -6.9032 H   0  0  0  0  0  0  0  0  0  0  0  0
   53.9561  155.6912   -7.7772 H   0  0  0  0  0  0  0  0  0  0  0  0
   53.3682  156.3964   -6.3952 H   0  0  0  0  0  0  0  0  0  0  0  0
  1  2  1  0  0  0  0
  1  9  2  0  0  0  0
  2  3  1  0  0  0  0
  2 10  2  0  0  0  0
  3 11  1  0  0  0  0
  3 13  2  0  0  0  0
  4  5  1  0  0  0  0
  4  7  1  0  0  0  0
  5 11  1  0  0  0  0
  6  7  1  0  0  0  0
  6 11  1  0  0  0  0
  7 12  1  0  0  0  0
  8  9  1  0  0  0  0
  8 10  1  0  0  0  0
  1 14  1  0  0  0  0
  4 15  1  0  0  0  0
  4 16  1  0  0  0  0
  5 17  1  0  0  0  0
  5 18  1  0  0  0  0
  6 19  1  0  0  0  0
  6 20  1  0  0  0  0
  7 21  1  0  0  0  0
 12 22  1  0  0  0  0
 12 23  1  0  0  0  0
 12 24  1  0  0  0  0
M  CHG  2   8  -1  12   1
M  END
> <FRED Chemgauss4 score>
-5.962263

$$$$
C83551924	P130695650
  -OEChem-05122015083D

 40 42  0     1  0  0  0  0  0999 V2000
   54.6793  154.8014   -6.6063 C   0  0  0  0  0  0  0  0  0  0  0  0
   53.8975  155.6091   -5.7806 C   0  0  0  0  0  0  0  0  0  0  0  0
   56.0703  154.8917   -6.5557 C   0  0  0  0  0  0  0  0  0  0  0  0
   55.8977  156.5975   -4.8535 C   0  0  0  0  0  0  0  0  0  0  0  0
   54.5066  156.5072   -4.9042 C   0  0  0  0  0  0  0  0  0  0  0  0
   56.6795  155.7897   -5.6793 C   0  0  0  0  0  0  0  0  0  0  0  0
   55.1190  163.2394   -3.2532 C   0  0  0  0  0  0  0  0  0  0  0  0
   56.2816  163.9528   -2.5550 C   0  0  0  0  0  0  0  0  0  0  0  0
   55.2748  161.7176   -3.1834 C   0  0  0  0  0  0  0  0  0  0  0  0
   58.5886  159.9194   -3.5806 C   0  0  0  0  0  0  0  0  0  0  0  0
   57.6478  163.4413   -3.0305 C   0  0  0  0  0  0  0  0  0  0  0  0
   58.9630  161.3761   -3.2772 C   0  0  0  0  0  0  0  0  0  0  0  0
   56.6632  161.3219   -3.6735 C   0  0  2  0  0  0  0  0  0  0  0  0
   57.0604  159.8680   -3.4503 C   0  0  1  0  0  0  0  0  0  0  0  0
   56.5320  157.5710   -3.9027 C   0  0  0  0  0  0  0  0  0  0  0  0
   57.6993  161.9929   -2.8804 N   0  0  2  0  0  0  0  0  0  0  0  0
   56.4285  158.9446   -4.3789 N   0  0  0  0  0  0  0  0  0  0  0  0
   53.7251  157.2875   -4.1058 O   0  0  0  0  0  0  0  0  0  0  0  0
   58.4037  155.8714   -5.6466 Cl  0  0  0  0  0  0  0  0  0  0  0  0
   54.2049  154.1022   -7.2887 H   0  0  0  0  0  0  0  0  0  0  0  0
   52.8144  155.5336   -5.8252 H   0  0  0  0  0  0  0  0  0  0  0  0
   56.6651  154.2551   -7.2059 H   0  0  0  0  0  0  0  0  0  0  0  0
   54.1686  163.5395   -2.7980 H   0  0  0  0  0  0  0  0  0  0  0  0
   55.0846  163.5518   -4.3044 H   0  0  0  0  0  0  0  0  0  0  0  0
   56.2102  165.0321   -2.7317 H   0  0  0  0  0  0  0  0  0  0  0  0
   56.1947  163.8012   -1.4711 H   0  0  0  0  0  0  0  0  0  0  0  0
   55.1220  161.3839   -2.1491 H   0  0  0  0  0  0  0  0  0  0  0  0
   54.5012  161.2380   -3.7931 H   0  0  0  0  0  0  0  0  0  0  0  0
   58.9226  159.6577   -4.5921 H   0  0  0  0  0  0  0  0  0  0  0  0
   59.0615  159.2220   -2.8805 H   0  0  0  0  0  0  0  0  0  0  0  0
   57.8144  163.7403   -4.0732 H   0  0  0  0  0  0  0  0  0  0  0  0
   58.4309  163.9100   -2.4237 H   0  0  0  0  0  0  0  0  0  0  0  0
   59.7062  161.4410   -2.4765 H   0  0  0  0  0  0  0  0  0  0  0  0
   59.3823  161.8401   -4.1786 H   0  0  0  0  0  0  0  0  0  0  0  0
   56.7633  161.5854   -4.7379 H   0  0  0  0  0  0  0  0  0  0  0  0
   56.8016  159.5577   -2.4287 H   0  0  0  0  0  0  0  0  0  0  0  0
   56.0527  157.5181   -2.9191 H   0  0  0  0  0  0  0  0  0  0  0  0
   57.5939  157.3454   -3.7596 H   0  0  0  0  0  0  0  0  0  0  0  0
   55.4431  159.1893   -4.4808 H   0  0  0  0  0  0  0  0  0  0  0  0
   52.7876  157.0984   -4.2675 H   0  0  0  0  0  0  0  0  0  0  0  0
  1  2  1  0  0  0  0
  1  3  2  0  0  0  0
  2  5  2  0  0  0  0
  3  6  1  0  0  0  0
  4  5  1  0  0  0  0
  4  6  2  0  0  0  0
  4 15  1  0  0  0  0
  5 18  1  0  0  0  0
  6 19  1  0  0  0  0
  7  8  1  0  0  0  0
  7  9  1  0  0  0  0
  8 11  1  0  0  0  0
  9 13  1  0  0  0  0
 10 12  1  0  0  0  0
 10 14  1  0  0  0  0
 11 16  1  0  0  0  0
 12 16  1  0  0  0  0
 13 14  1  0  0  0  0
 13 16  1  0  0  0  0
 14 17  1  0  0  0  0
 15 17  1  0  0  0  0
  1 20  1  0  0  0  0
  2 21  1  0  0  0  0
  3 22  1  0  0  0  0
  7 23  1  0  0  0  0
  7 24  1  0  0  0  0
  8 25  1  0  0  0  0
  8 26  1  0  0  0  0
  9 27  1  0  0  0  0
  9 28  1  0  0  0  0
 10 29  1  0  0  0  0
 10 30  1  0  0  0  0
 11 31  1  0  0  0  0
 11 32  1  0  0  0  0
 12 33  1  0  0  0  0
 12 34  1  0  0  0  0
 13 35  1  0  0  0  0
 14 36  1  0  0  0  0
 15 37  1  0  0  0  0
 15 38  1  0  0  0  0
 17 39  1  0  0  0  0
 18 40  1  0  0  0  0
M  END
> <FRED Chemgauss4 score>
-5.960285

$$$$
C71484901	P110638633
  -OEChem-05122015083D

 20 20  0     1  0  0  0  0  0999 V2000
   57.6992  156.4695   -6.0145 C   0  0  0  0  0  0  0  0  0  0  0  0
   57.6199  155.1124   -6.2471 C   0  0  0  0  0  0  0  0  0  0  0  0
   55.5182  156.2499   -5.9449 C   0  0  0  0  0  0  0  0  0  0  0  0
   54.0513  156.5879   -5.8132 C   0  0  0  0  0  0  0  0  0  0  0  0
   53.9715  156.0382   -3.3192 C   0  0  0  0  0  0  0  0  0  0  0  0
   53.3689  155.7773   -4.7025 C   0  0  1  0  0  0  0  0  0  0  0  0
   56.4950  157.1235   -5.8414 N   0  0  0  0  0  0  0  0  0  0  0  0
   53.3031  155.2616   -2.3002 N   0  0  0  0  0  0  0  0  0  0  0  0
   51.9783  156.0994   -4.6747 O   0  0  0  0  0  0  0  0  0  0  0  0
   55.9759  154.6242   -6.2493 S   0  0  0  0  0  0  0  0  0  0  0  0
   58.6191  157.0362   -5.9605 H   0  0  0  0  0  0  0  0  0  0  0  0
   58.4232  154.4075   -6.4081 H   0  0  0  0  0  0  0  0  0  0  0  0
   53.9547  157.6642   -5.6212 H   0  0  0  0  0  0  0  0  0  0  0  0
   53.5646  156.3967   -6.7781 H   0  0  0  0  0  0  0  0  0  0  0  0
   53.8715  157.0981   -3.0619 H   0  0  0  0  0  0  0  0  0  0  0  0
   55.0384  155.7919   -3.3176 H   0  0  0  0  0  0  0  0  0  0  0  0
   53.4485  154.7046   -4.9172 H   0  0  0  0  0  0  0  0  0  0  0  0
   52.3100  155.1285   -2.3662 H   0  0  0  0  0  0  0  0  0  0  0  0
   53.7974  155.0471   -1.4527 H   0  0  0  0  0  0  0  0  0  0  0  0
   51.6254  155.8642   -5.5459 H   0  0  0  0  0  0  0  0  0  0  0  0
  1  2  2  0  0  0  0
  1  7  1  0  0  0  0
  2 10  1  0  0  0  0
  3  4  1  0  0  0  0
  3  7  2  0  0  0  0
  3 10  1  0  0  0  0
  4  6  1  0  0  0  0
  5  6  1  0  0  0  0
  5  8  1  0  0  0  0
  6  9  1  0  0  0  0
  1 11  1  0  0  0  0
  2 12  1  0  0  0  0
  4 13  1  0  0  0  0
  4 14  1  0  0  0  0
  5 15  1  0  0  0  0
  5 16  1  0  0  0  0
  6 17  1  0  0  0  0
  8 18  1  0  0  0  0
  8 19  1  0  0  0  0
  9 20  1  0  0  0  0
M  END
> <FRED Chemgauss4 score>
-5.957986

$$$$
C87338650	P136656130
  -OEChem-05122015083D

 23 24  0     1  0  0  0  0  0999 V2000
   56.8423  159.9873   -1.0597 C   0  0  0  0  0  0  0  0  0  0  0  0
   57.8041  159.7219   -2.0058 C   0  0  0  0  0  0  0  0  0  0  0  0
   55.1537  157.3873   -2.8164 C   0  0  0  0  0  0  0  0  0  0  0  0
   56.0422  158.4232   -2.2613 C   0  0  0  0  0  0  0  0  0  0  0  0
   54.4474  155.8696   -4.0318 C   0  0  0  0  0  0  0  0  0  0  0  0
   54.2020  155.3139   -6.4887 C   0  0  0  0  0  0  0  0  0  0  0  0
   54.1695  154.7865   -5.0518 C   0  0  1  0  0  0  0  0  0  0  0  0
   55.7481  159.1752   -1.2241 N   0  0  0  0  0  0  0  0  0  0  0  0
   55.5039  156.6306   -3.8966 N   0  0  0  0  0  0  0  0  0  0  0  0
   53.9521  157.1295   -2.2915 N   0  0  0  0  0  0  0  0  0  0  0  0
   57.2775  158.7175   -2.7680 N   0  0  0  0  0  0  0  0  0  0  0  0
   55.0912  153.6821   -4.8918 N   0  0  0  0  0  0  0  0  0  0  0  0
   53.4729  156.1021   -3.1139 O   0  0  0  0  0  0  0  0  0  0  0  0
   53.2375  156.3520   -6.6294 O   0  0  0  0  0  0  0  0  0  0  0  0
   56.8822  160.7215   -0.2684 H   0  0  0  0  0  0  0  0  0  0  0  0
   58.7809  160.1403   -2.2006 H   0  0  0  0  0  0  0  0  0  0  0  0
   55.1832  155.7387   -6.7275 H   0  0  0  0  0  0  0  0  0  0  0  0
   53.9720  154.5298   -7.2184 H   0  0  0  0  0  0  0  0  0  0  0  0
   53.1783  154.3543   -4.8644 H   0  0  0  0  0  0  0  0  0  0  0  0
   57.7231  158.2768   -3.5620 H   0  0  0  0  0  0  0  0  0  0  0  0
   55.2411  153.0631   -5.6669 H   0  0  0  0  0  0  0  0  0  0  0  0
   55.3979  153.4403   -3.9678 H   0  0  0  0  0  0  0  0  0  0  0  0
   53.2902  156.6569   -7.5488 H   0  0  0  0  0  0  0  0  0  0  0  0
  1  2  2  0  0  0  0
  1  8  1  0  0  0  0
  2 11  1  0  0  0  0
  3  4  1  0  0  0  0
  3  9  1  0  0  0  0
  3 10  2  0  0  0  0
  4  8  2  0  0  0  0
  4 11  1  0  0  0  0
  5  7  1  0  0  0  0
  5  9  2  0  0  0  0
  5 13  1  0  0  0  0
  6  7  1  0  0  0  0
  6 14  1  0  0  0  0
  7 12  1  0  0  0  0
 10 13  1  0  0  0  0
  1 15  1  0  0  0  0
  2 16  1  0  0  0  0
  6 17  1  0  0  0  0
  6 18  1  0  0  0  0
  7 19  1  0  0  0  0
 11 20  1  0  0  0  0
 12 21  1  0  0  0  0
 12 22  1  0  0  0  0
 14 23  1  0  0  0  0
M  END
> <FRED Chemgauss4 score>
-5.950688

$$$$
C70368618	P108497256
  -OEChem-05122015083D

 39 40  0     1  0  0  0  0  0999 V2000
   57.3320  156.3370   -6.5281 C   0  0  0  0  0  0  0  0  0  0  0  0
   57.2749  154.9796   -6.2908 C   0  0  0  0  0  0  0  0  0  0  0  0
   55.4883  156.2871   -5.3414 C   0  0  0  0  0  0  0  0  0  0  0  0
   53.8713  155.8456   -3.3856 C   0  0  0  0  0  0  0  0  0  0  0  0
   54.2719  158.2011   -4.0430 C   0  0  0  0  0  0  0  0  0  0  0  0
   54.8509  156.0570   -2.2337 C   0  0  0  0  0  0  0  0  0  0  0  0
   55.2237  158.3232   -2.8417 C   0  0  1  0  0  0  0  0  0  0  0  0
   54.2183  156.7504   -4.6003 C   0  0  1  0  0  0  0  0  0  0  0  0
   58.3745  157.0406   -7.3032 C   0  0  0  0  0  0  0  0  0  0  0  0
   58.1875  153.8999   -6.7177 C   0  0  0  0  0  0  0  0  0  0  0  0
   56.4821  159.0519   -0.2129 C   0  0  0  0  0  0  0  0  0  0  0  0
   55.1866  159.7311   -2.2607 C   0  0  0  0  0  0  0  0  0  0  0  0
   56.4115  160.0076   -1.3932 C   0  0  0  0  0  0  0  0  0  0  0  0
   56.3082  157.0883   -5.9848 N   0  0  0  0  0  0  0  0  0  0  0  0
   53.0811  156.7009   -5.5388 N   0  0  0  0  0  0  0  0  0  0  0  0
   54.8328  157.4176   -1.8058 O   0  0  0  0  0  0  0  0  0  0  0  0
   55.8882  154.6183   -5.3486 S   0  0  0  0  0  0  0  0  0  0  0  0
   53.8753  154.7874   -3.6762 H   0  0  0  0  0  0  0  0  0  0  0  0
   52.8594  156.0834   -3.0293 H   0  0  0  0  0  0  0  0  0  0  0  0
   53.2625  158.4977   -3.7240 H   0  0  0  0  0  0  0  0  0  0  0  0
   54.5805  158.9028   -4.8292 H   0  0  0  0  0  0  0  0  0  0  0  0
   54.5507  155.4410   -1.3798 H   0  0  0  0  0  0  0  0  0  0  0  0
   55.8738  155.7673   -2.4991 H   0  0  0  0  0  0  0  0  0  0  0  0
   56.2552  158.0980   -3.1365 H   0  0  0  0  0  0  0  0  0  0  0  0
   58.1016  157.1025   -8.3689 H   0  0  0  0  0  0  0  0  0  0  0  0
   58.5372  158.0684   -6.9376 H   0  0  0  0  0  0  0  0  0  0  0  0
   59.3518  156.5337   -7.2351 H   0  0  0  0  0  0  0  0  0  0  0  0
   58.9841  153.7368   -5.9738 H   0  0  0  0  0  0  0  0  0  0  0  0
   57.6578  152.9425   -6.8577 H   0  0  0  0  0  0  0  0  0  0  0  0
   58.6709  154.1254   -7.6835 H   0  0  0  0  0  0  0  0  0  0  0  0
   55.5833  159.1277    0.4074 H   0  0  0  0  0  0  0  0  0  0  0  0
   57.3484  159.2866    0.4136 H   0  0  0  0  0  0  0  0  0  0  0  0
   56.5792  158.0157   -0.5523 H   0  0  0  0  0  0  0  0  0  0  0  0
   55.1378  160.4546   -3.0816 H   0  0  0  0  0  0  0  0  0  0  0  0
   54.2733  159.8484   -1.6676 H   0  0  0  0  0  0  0  0  0  0  0  0
   57.3242  159.9069   -1.9924 H   0  0  0  0  0  0  0  0  0  0  0  0
   56.3805  161.0380   -1.0205 H   0  0  0  0  0  0  0  0  0  0  0  0
   52.6235  155.8269   -5.6701 H   0  0  0  0  0  0  0  0  0  0  0  0
   52.9464  157.4765   -6.1481 H   0  0  0  0  0  0  0  0  0  0  0  0
  1  2  2  0  0  0  0
  1  9  1  0  0  0  0
  1 14  1  0  0  0  0
  2 10  1  0  0  0  0
  2 17  1  0  0  0  0
  3  8  1  0  0  0  0
  3 14  2  0  0  0  0
  3 17  1  0  0  0  0
  4  6  1  0  0  0  0
  4  8  1  0  0  0  0
  5  7  1  0  0  0  0
  5  8  1  0  0  0  0
  6 16  1  0  0  0  0
  7 12  1  0  0  0  0
  7 16  1  0  0  0  0
  8 15  1  0  0  0  0
 11 13  1  0  0  0  0
 12 13  1  0  0  0  0
  4 18  1  0  0  0  0
  4 19  1  0  0  0  0
  5 20  1  0  0  0  0
  5 21  1  0  0  0  0
  6 22  1  0  0  0  0
  6 23  1  0  0  0  0
  7 24  1  0  0  0  0
  9 25  1  0  0  0  0
  9 26  1  0  0  0  0
  9 27  1  0  0  0  0
 10 28  1  0  0  0  0
 10 29  1  0  0  0  0
 10 30  1  0  0  0  0
 11 31  1  0  0  0  0
 11 32  1  0  0  0  0
 11 33  1  0  0  0  0
 12 34  1  0  0  0  0
 12 35  1  0  0  0  0
 13 36  1  0  0  0  0
 13 37  1  0  0  0  0
 15 38  1  0  0  0  0
 15 39  1  0  0  0  0
M  END
> <FRED Chemgauss4 score>
-5.949372

$$$$
C89754839	P140318181
  -OEChem-05122015083D

 39 40  0     1  0  0  0  0  0999 V2000
   53.4859  156.3055   -2.7744 C   0  0  0  0  0  0  0  0  0  0  0  0
   53.9558  157.1375   -5.0943 C   0  0  0  0  0  0  0  0  0  0  0  0
   60.4991  159.0734   -7.7358 C   0  0  0  0  0  0  0  0  0  0  0  0
   57.3614  157.0137   -6.4262 C   0  0  0  0  0  0  0  0  0  0  0  0
   54.9607  156.0511   -2.5723 C   0  0  0  0  0  0  0  0  0  0  0  0
   55.6571  155.7461   -3.8860 C   0  0  0  0  0  0  0  0  0  0  0  0
   59.3581  161.1857   -6.8247 C   0  0  0  0  0  0  0  0  0  0  0  0
   55.4358  156.8967   -4.8541 C   0  0  1  0  0  0  0  0  0  0  0  0
   60.4082  160.5626   -7.6876 C   0  0  1  0  0  0  0  0  0  0  0  0
   60.8038  161.2554   -6.4217 C   0  0  1  0  0  0  0  0  0  0  0  0
   61.5391  162.5491   -6.4919 C   0  0  0  0  0  0  0  0  0  0  0  0
   57.7571  156.6011   -7.8327 C   0  0  0  0  0  0  0  0  0  0  0  0
   59.1806  157.0130   -8.1821 C   0  0  0  0  0  0  0  0  0  0  0  0
   53.1309  156.8341   -4.0118 N   0  0  0  0  0  0  0  0  0  0  0  0
   59.3143  158.4454   -8.0760 N   0  0  0  0  0  0  0  0  0  0  0  0
   56.0596  156.6304   -6.1231 N   0  0  0  0  0  0  0  0  0  0  0  0
   52.6705  156.1021   -1.8752 O   0  0  0  0  0  0  0  0  0  0  0  0
   53.5217  157.6334   -6.1339 O   0  0  0  0  0  0  0  0  0  0  0  0
   61.5657  158.5247   -7.4849 O   0  0  0  0  0  0  0  0  0  0  0  0
   58.1158  157.6114   -5.6637 O   0  0  0  0  0  0  0  0  0  0  0  0
   55.3965  156.9362   -2.0955 H   0  0  0  0  0  0  0  0  0  0  0  0
   55.0764  155.2026   -1.8893 H   0  0  0  0  0  0  0  0  0  0  0  0
   56.7286  155.5910   -3.7144 H   0  0  0  0  0  0  0  0  0  0  0  0
   55.2620  154.8116   -4.3067 H   0  0  0  0  0  0  0  0  0  0  0  0
   58.8813  162.0822   -7.2027 H   0  0  0  0  0  0  0  0  0  0  0  0
   58.7042  160.5502   -6.2394 H   0  0  0  0  0  0  0  0  0  0  0  0
   55.8736  157.8221   -4.4626 H   0  0  0  0  0  0  0  0  0  0  0  0
   60.6311  161.0295   -8.6297 H   0  0  0  0  0  0  0  0  0  0  0  0
   61.1135  160.6629   -5.5687 H   0  0  0  0  0  0  0  0  0  0  0  0
   61.2229  163.1501   -7.3599 H   0  0  0  0  0  0  0  0  0  0  0  0
   62.6266  162.3944   -6.5815 H   0  0  0  0  0  0  0  0  0  0  0  0
   61.3701  163.1623   -5.5918 H   0  0  0  0  0  0  0  0  0  0  0  0
   57.6495  155.5125   -7.9164 H   0  0  0  0  0  0  0  0  0  0  0  0
   57.0503  157.0560   -8.5380 H   0  0  0  0  0  0  0  0  0  0  0  0
   59.4324  156.7005   -9.2013 H   0  0  0  0  0  0  0  0  0  0  0  0
   59.8971  156.5317   -7.5076 H   0  0  0  0  0  0  0  0  0  0  0  0
   52.1404  157.0183   -4.1462 H   0  0  0  0  0  0  0  0  0  0  0  0
   58.4973  159.0221   -8.2605 H   0  0  0  0  0  0  0  0  0  0  0  0
   55.5216  156.1373   -6.8337 H   0  0  0  0  0  0  0  0  0  0  0  0
  1  5  1  0  0  0  0
  1 14  1  0  0  0  0
  1 17  2  0  0  0  0
  2  8  1  0  0  0  0
  2 14  1  0  0  0  0
  2 18  2  0  0  0  0
  3  9  1  0  0  0  0
  3 15  1  0  0  0  0
  3 19  2  0  0  0  0
  4 12  1  0  0  0  0
  4 16  1  0  0  0  0
  4 20  2  0  0  0  0
  5  6  1  0  0  0  0
  6  8  1  0  0  0  0
  7  9  1  0  0  0  0
  7 10  1  0  0  0  0
  8 16  1  0  0  0  0
  9 10  1  0  0  0  0
 10 11  1  0  0  0  0
 12 13  1  0  0  0  0
 13 15  1  0  0  0  0
  5 21  1  0  0  0  0
  5 22  1  0  0  0  0
  6 23  1  0  0  0  0
  6 24  1  0  0  0  0
  7 25  1  0  0  0  0
  7 26  1  0  0  0  0
  8 27  1  0  0  0  0
  9 28  1  0  0  0  0
 10 29  1  0  0  0  0
 11 30  1  0  0  0  0
 11 31  1  0  0  0  0
 11 32  1  0  0  0  0
 12 33  1  0  0  0  0
 12 34  1  0  0  0  0
 13 35  1  0  0  0  0
 13 36  1  0  0  0  0
 14 37  1  0  0  0  0
 15 38  1  0  0  0  0
 16 39  1  0  0  0  0
M  END
> <FRED Chemgauss4 score>
-5.945938

$$$$
C04904580	P07155831
  -OEChem-05122015083D

 22 22  0     0  0  0  0  0  0999 V2000
   54.8025  157.8221   -2.9325 C   0  0  0  0  0  0  0  0  0  0  0  0
   54.0673  156.5568   -3.1273 C   0  0  0  0  0  0  0  0  0  0  0  0
   58.1166  158.8004   -4.1714 C   0  0  0  0  0  0  0  0  0  0  0  0
   57.7029  157.8067   -5.2482 C   0  0  0  0  0  0  0  0  0  0  0  0
   56.7888  159.1750   -3.5322 C   0  0  0  0  0  0  0  0  0  0  0  0
   56.5809  157.0239   -4.5799 C   0  0  0  0  0  0  0  0  0  0  0  0
   55.9754  157.9721   -3.6461 N   0  0  0  0  0  0  0  0  0  0  0  0
   52.3926  155.5313   -4.4505 N   0  0  0  0  0  0  0  0  0  0  0  0
   53.1558  156.6426   -4.1525 N   0  0  0  0  0  0  0  0  0  0  0  0
   54.3443  158.6605   -2.1569 O   0  0  0  0  0  0  0  0  0  0  0  0
   54.3035  155.5923   -2.4153 O   0  0  0  0  0  0  0  0  0  0  0  0
   58.7613  158.3035   -3.4366 H   0  0  0  0  0  0  0  0  0  0  0  0
   58.6522  159.6661   -4.5700 H   0  0  0  0  0  0  0  0  0  0  0  0
   57.3151  158.3465   -6.1206 H   0  0  0  0  0  0  0  0  0  0  0  0
   58.5245  157.1658   -5.5794 H   0  0  0  0  0  0  0  0  0  0  0  0
   56.8835  159.4826   -2.4866 H   0  0  0  0  0  0  0  0  0  0  0  0
   56.2841  159.9714   -4.0901 H   0  0  0  0  0  0  0  0  0  0  0  0
   55.8396  156.6507   -5.2924 H   0  0  0  0  0  0  0  0  0  0  0  0
   56.9716  156.1836   -3.9958 H   0  0  0  0  0  0  0  0  0  0  0  0
   51.4835  155.8717   -4.7612 H   0  0  0  0  0  0  0  0  0  0  0  0
   52.2252  155.0434   -3.5714 H   0  0  0  0  0  0  0  0  0  0  0  0
   53.0105  157.4820   -4.7052 H   0  0  0  0  0  0  0  0  0  0  0  0
  1  2  1  0  0  0  0
  1  7  1  0  0  0  0
  1 10  2  0  0  0  0
  2  9  1  0  0  0  0
  2 11  2  0  0  0  0
  3  4  1  0  0  0  0
  3  5  1  0  0  0  0
  4  6  1  0  0  0  0
  5  7  1  0  0  0  0
  6  7  1  0  0  0  0
  8  9  1  0  0  0  0
  3 12  1  0  0  0  0
  3 13  1  0  0  0  0
  4 14  1  0  0  0  0
  4 15  1  0  0  0  0
  5 16  1  0  0  0  0
  5 17  1  0  0  0  0
  6 18  1  0  0  0  0
  6 19  1  0  0  0  0
  8 20  1  0  0  0  0
  8 21  1  0  0  0  0
  9 22  1  0  0  0  0
M  END
> <FRED Chemgauss4 score>
-5.942734

$$$$
C36853506	P90345133
  -OEChem-05122015083D

 27 27  0     1  0  0  0  0  0999 V2000
   53.6860  156.0484   -3.4344 C   0  0  0  0  0  0  0  0  0  0  0  0
   53.6336  156.3707   -5.7158 C   0  0  0  0  0  0  0  0  0  0  0  0
   55.0099  155.5325   -3.9261 C   0  0  0  0  0  0  0  0  0  0  0  0
   54.9981  155.8018   -5.4264 C   0  0  2  0  0  0  0  0  0  0  0  0
   57.7276  155.3530   -6.6970 C   0  0  0  0  0  0  0  0  0  0  0  0
   57.7905  158.3193   -3.3550 C   0  0  0  0  0  0  0  0  0  0  0  0
   58.3060  157.4850   -5.4907 C   0  0  0  0  0  0  0  0  0  0  0  0
   57.3405  156.3052   -5.5730 C   0  0  1  0  0  0  0  0  0  0  0  0
   52.9638  156.4702   -4.5215 N   0  0  0  0  0  0  0  0  0  0  0  0
   55.9895  156.7938   -5.8159 N   0  0  0  0  0  0  0  0  0  0  0  0
   53.3341  156.0636   -2.2641 O   0  0  0  0  0  0  0  0  0  0  0  0
   53.2206  156.6991   -6.8185 O   0  0  0  0  0  0  0  0  0  0  0  0
   57.6984  158.5409   -4.7551 O   0  0  0  0  0  0  0  0  0  0  0  0
   55.8235  156.0413   -3.3992 H   0  0  0  0  0  0  0  0  0  0  0  0
   55.0751  154.4588   -3.7215 H   0  0  0  0  0  0  0  0  0  0  0  0
   55.1389  154.8747   -5.9916 H   0  0  0  0  0  0  0  0  0  0  0  0
   57.7355  155.8706   -7.6618 H   0  0  0  0  0  0  0  0  0  0  0  0
   57.0285  154.5119   -6.7666 H   0  0  0  0  0  0  0  0  0  0  0  0
   58.7272  154.9374   -6.5282 H   0  0  0  0  0  0  0  0  0  0  0  0
   57.3154  159.1467   -2.8224 H   0  0  0  0  0  0  0  0  0  0  0  0
   58.8416  158.2415   -3.0660 H   0  0  0  0  0  0  0  0  0  0  0  0
   57.2768  157.3872   -3.1081 H   0  0  0  0  0  0  0  0  0  0  0  0
   59.2233  157.1973   -4.9665 H   0  0  0  0  0  0  0  0  0  0  0  0
   58.5711  157.8616   -6.4847 H   0  0  0  0  0  0  0  0  0  0  0  0
   57.3394  155.7654   -4.6192 H   0  0  0  0  0  0  0  0  0  0  0  0
   52.0166  156.8251   -4.4493 H   0  0  0  0  0  0  0  0  0  0  0  0
   55.8404  157.6477   -5.2783 H   0  0  0  0  0  0  0  0  0  0  0  0
  1  3  1  0  0  0  0
  1  9  1  0  0  0  0
  1 11  2  0  0  0  0
  2  4  1  0  0  0  0
  2  9  1  0  0  0  0
  2 12  2  0  0  0  0
  3  4  1  0  0  0  0
  4 10  1  0  0  0  0
  5  8  1  0  0  0  0
  6 13  1  0  0  0  0
  7  8  1  0  0  0  0
  7 13  1  0  0  0  0
  8 10  1  0  0  0  0
  3 14  1  0  0  0  0
  3 15  1  0  0  0  0
  4 16  1  0  0  0  0
  5 17  1  0  0  0  0
  5 18  1  0  0  0  0
  5 19  1  0  0  0  0
  6 20  1  0  0  0  0
  6 21  1  0  0  0  0
  6 22  1  0  0  0  0
  7 23  1  0  0  0  0
  7 24  1  0  0  0  0
  8 25  1  0  0  0  0
  9 26  1  0  0  0  0
 10 27  1  0  0  0  0
M  END
> <FRED Chemgauss4 score>
-5.935417

$$$$
C69189165	P106351442
  -OEChem-05122015083D

 38 40  0     1  0  0  0  0  0999 V2000
   60.1107  157.4940   -6.3108 C   0  0  0  0  0  0  0  0  0  0  0  0
   60.8228  161.7360   -5.8212 C   0  0  0  0  0  0  0  0  0  0  0  0
   59.6952  159.8992   -5.3566 C   0  0  0  0  0  0  0  0  0  0  0  0
   60.7187  159.6577   -6.2632 C   0  0  0  0  0  0  0  0  0  0  0  0
   58.8688  158.8767   -4.9339 C   0  0  0  0  0  0  0  0  0  0  0  0
   54.3462  159.1322   -3.0096 C   0  0  0  0  0  0  0  0  0  0  0  0
   53.8819  161.7619   -4.8966 C   0  0  0  0  0  0  0  0  0  0  0  0
   54.9746  161.5452   -5.9059 C   0  0  0  0  0  0  0  0  0  0  0  0
   55.0410  160.8622   -4.5678 C   0  0  0  0  0  0  0  0  0  0  0  0
   52.6103  157.2714   -6.7629 C   0  0  0  0  0  0  0  0  0  0  0  0
   53.6856  157.5246   -5.7289 C   0  0  0  0  0  0  0  0  0  0  0  0
   56.1432  158.6149   -4.8080 C   0  0  0  0  0  0  0  0  0  0  0  0
   54.8360  159.3450   -4.4635 C   0  0  1  0  0  0  0  0  0  0  0  0
   60.9651  158.4293   -6.7788 N   0  0  0  0  0  0  0  0  0  0  0  0
   59.0909  157.6394   -5.4316 N   0  0  0  0  0  0  0  0  0  0  0  0
   61.4120  160.8073   -6.5437 N   0  0  0  0  0  0  0  0  0  0  0  0
   59.7800  161.2355   -5.0872 N   0  0  0  0  0  0  0  0  0  0  0  0
   53.8122  158.9818   -5.5043 N   0  3  0  0  0  0  0  0  0  0  0  0
   54.0945  157.9334   -2.6948 O   0  5  0  0  0  0  0  0  0  0  0  0
   54.2391  160.1773   -2.3066 O   0  0  0  0  0  0  0  0  0  0  0  0
   57.5571  159.1420   -3.7832 S   0  0  0  0  0  0  0  0  0  0  0  0
   60.2609  156.4889   -6.6904 H   0  0  0  0  0  0  0  0  0  0  0  0
   61.0976  162.7805   -5.7833 H   0  0  0  0  0  0  0  0  0  0  0  0
   53.8249  162.7312   -4.4170 H   0  0  0  0  0  0  0  0  0  0  0  0
   52.9217  161.2977   -5.0858 H   0  0  0  0  0  0  0  0  0  0  0  0
   54.7468  160.9360   -6.7719 H   0  0  0  0  0  0  0  0  0  0  0  0
   55.6493  162.3693   -6.1018 H   0  0  0  0  0  0  0  0  0  0  0  0
   55.7718  161.2239   -3.8546 H   0  0  0  0  0  0  0  0  0  0  0  0
   51.6450  157.6399   -6.4024 H   0  0  0  0  0  0  0  0  0  0  0  0
   52.8378  157.7829   -7.7039 H   0  0  0  0  0  0  0  0  0  0  0  0
   52.5072  156.2017   -6.9730 H   0  0  0  0  0  0  0  0  0  0  0  0
   54.6622  157.1652   -6.0646 H   0  0  0  0  0  0  0  0  0  0  0  0
   53.4350  157.0717   -4.7657 H   0  0  0  0  0  0  0  0  0  0  0  0
   56.0278  157.5324   -4.6791 H   0  0  0  0  0  0  0  0  0  0  0  0
   56.4199  158.7816   -5.8552 H   0  0  0  0  0  0  0  0  0  0  0  0
   59.1837  161.7617   -4.4622 H   0  0  0  0  0  0  0  0  0  0  0  0
   54.0658  159.4498   -6.3787 H   0  0  0  0  0  0  0  0  0  0  0  0
   52.9105  159.3707   -5.2152 H   0  0  0  0  0  0  0  0  0  0  0  0
  1 14  2  0  0  0  0
  1 15  1  0  0  0  0
  2 16  2  0  0  0  0
  2 17  1  0  0  0  0
  3  4  2  0  0  0  0
  3  5  1  0  0  0  0
  3 17  1  0  0  0  0
  4 14  1  0  0  0  0
  4 16  1  0  0  0  0
  5 15  2  0  0  0  0
  5 21  1  0  0  0  0
  6 13  1  0  0  0  0
  6 19  1  0  0  0  0
  6 20  2  0  0  0  0
  7  8  1  0  0  0  0
  7  9  1  0  0  0  0
  8  9  1  0  0  0  0
  9 13  1  0  0  0  0
 10 11  1  0  0  0  0
 11 18  1  0  0  0  0
 12 13  1  0  0  0  0
 12 21  1  0  0  0  0
 13 18  1  0  0  0  0
  1 22  1  0  0  0  0
  2 23  1  0  0  0  0
  7 24  1  0  0  0  0
  7 25  1  0  0  0  0
  8 26  1  0  0  0  0
  8 27  1  0  0  0  0
  9 28  1  0  0  0  0
 10 29  1  0  0  0  0
 10 30  1  0  0  0  0
 10 31  1  0  0  0  0
 11 32  1  0  0  0  0
 11 33  1  0  0  0  0
 12 34  1  0  0  0  0
 12 35  1  0  0  0  0
 17 36  1  0  0  0  0
 18 37  1  0  0  0  0
 18 38  1  0  0  0  0
M  CHG  2  18   1  19  -1
M  END
> <FRED Chemgauss4 score>
-5.933787

$$$$
C84991571	P133024477
  -OEChem-05122015083D

 28 28  0     1  0  0  0  0  0999 V2000
   58.4771  154.4417   -6.5228 C   0  0  0  0  0  0  0  0  0  0  0  0
   57.1661  154.8958   -7.1146 C   0  0  0  0  0  0  0  0  0  0  0  0
   59.1291  155.7580   -6.1656 C   0  0  0  0  0  0  0  0  0  0  0  0
   56.8241  156.1181   -6.2757 C   0  0  1  0  0  0  0  0  0  0  0  0
   55.9543  155.7866   -5.0711 C   0  0  0  0  0  0  0  0  0  0  0  0
   54.4781  155.6681   -5.4624 C   0  0  0  0  0  0  0  0  0  0  0  0
   53.9950  156.1007   -3.0252 C   0  0  0  0  0  0  0  0  0  0  0  0
   53.5892  155.3048   -4.2668 C   0  0  1  0  0  0  0  0  0  0  0  0
   53.8717  157.5196   -3.2754 N   0  0  0  0  0  0  0  0  0  0  0  0
   58.0714  156.6538   -5.7990 O   0  0  0  0  0  0  0  0  0  0  0  0
   52.2371  155.6149   -4.6013 O   0  0  0  0  0  0  0  0  0  0  0  0
   58.3649  153.7728   -5.6657 H   0  0  0  0  0  0  0  0  0  0  0  0
   59.0699  153.9241   -7.2863 H   0  0  0  0  0  0  0  0  0  0  0  0
   57.2291  155.1224   -8.1877 H   0  0  0  0  0  0  0  0  0  0  0  0
   56.4103  154.1054   -6.9849 H   0  0  0  0  0  0  0  0  0  0  0  0
   59.7898  155.6511   -5.2997 H   0  0  0  0  0  0  0  0  0  0  0  0
   59.7019  156.1820   -6.9939 H   0  0  0  0  0  0  0  0  0  0  0  0
   56.3449  156.8835   -6.8793 H   0  0  0  0  0  0  0  0  0  0  0  0
   56.2977  154.8439   -4.6294 H   0  0  0  0  0  0  0  0  0  0  0  0
   56.0847  156.5673   -4.3132 H   0  0  0  0  0  0  0  0  0  0  0  0
   54.1504  156.6262   -5.8857 H   0  0  0  0  0  0  0  0  0  0  0  0
   54.3711  154.9073   -6.2450 H   0  0  0  0  0  0  0  0  0  0  0  0
   53.3599  155.8408   -2.1718 H   0  0  0  0  0  0  0  0  0  0  0  0
   55.0355  155.8893   -2.7574 H   0  0  0  0  0  0  0  0  0  0  0  0
   53.6521  154.2270   -4.0739 H   0  0  0  0  0  0  0  0  0  0  0  0
   54.4315  158.1557   -2.7374 H   0  0  0  0  0  0  0  0  0  0  0  0
   53.0977  157.8481   -3.8237 H   0  0  0  0  0  0  0  0  0  0  0  0
   52.0181  155.0821   -5.3809 H   0  0  0  0  0  0  0  0  0  0  0  0
  1  2  1  0  0  0  0
  1  3  1  0  0  0  0
  2  4  1  0  0  0  0
  3 10  1  0  0  0  0
  4  5  1  0  0  0  0
  4 10  1  0  0  0  0
  5  6  1  0  0  0  0
  6  8  1  0  0  0  0
  7  8  1  0  0  0  0
  7  9  1  0  0  0  0
  8 11  1  0  0  0  0
  1 12  1  0  0  0  0
  1 13  1  0  0  0  0
  2 14  1  0  0  0  0
  2 15  1  0  0  0  0
  3 16  1  0  0  0  0
  3 17  1  0  0  0  0
  4 18  1  0  0  0  0
  5 19  1  0  0  0  0
  5 20  1  0  0  0  0
  6 21  1  0  0  0  0
  6 22  1  0  0  0  0
  7 23  1  0  0  0  0
  7 24  1  0  0  0  0
  8 25  1  0  0  0  0
  9 26  1  0  0  0  0
  9 27  1  0  0  0  0
 11 28  1  0  0  0  0
M  END
> <FRED Chemgauss4 score>
-5.929886

$$$$
C70841683	P109362130
  -OEChem-05122015083D

 27 28  0     0  0  0  0  0  0999 V2000
   58.6552  154.3608   -7.0387 C   0  0  0  0  0  0  0  0  0  0  0  0
   56.8314  153.1435   -7.6418 C   0  0  0  0  0  0  0  0  0  0  0  0
   59.1889  153.1206   -7.7204 C   0  0  0  0  0  0  0  0  0  0  0  0
   54.8567  155.7175   -3.0388 C   0  0  0  0  0  0  0  0  0  0  0  0
   53.7610  155.7477   -4.8151 C   0  0  0  0  0  0  0  0  0  0  0  0
   53.3787  156.0312   -3.3484 C   0  0  0  0  0  0  0  0  0  0  0  0
   56.4152  155.3139   -6.4620 C   0  0  0  0  0  0  0  0  0  0  0  0
   56.0553  155.0137   -5.0167 C   0  0  0  0  0  0  0  0  0  0  0  0
   57.9674  152.4413   -8.0518 N   0  0  0  0  0  0  0  0  0  0  0  0
   57.2725  154.3073   -7.0281 N   0  0  0  0  0  0  0  0  0  0  0  0
   55.1694  156.0258   -4.4527 N   0  0  0  0  0  0  0  0  0  0  0  0
   59.3662  155.2464   -6.5827 O   0  0  0  0  0  0  0  0  0  0  0  0
   55.6736  152.7812   -7.8049 O   0  0  0  0  0  0  0  0  0  0  0  0
   52.9351  157.3704   -3.0576 O   0  0  0  0  0  0  0  0  0  0  0  0
   59.7319  153.3688   -8.6336 H   0  0  0  0  0  0  0  0  0  0  0  0
   59.7770  152.5086   -7.0346 H   0  0  0  0  0  0  0  0  0  0  0  0
   55.3044  156.3811   -2.2861 H   0  0  0  0  0  0  0  0  0  0  0  0
   55.0582  154.6804   -2.7494 H   0  0  0  0  0  0  0  0  0  0  0  0
   53.5770  154.7212   -5.1506 H   0  0  0  0  0  0  0  0  0  0  0  0
   53.2996  156.4365   -5.5363 H   0  0  0  0  0  0  0  0  0  0  0  0
   52.6816  155.2927   -2.9293 H   0  0  0  0  0  0  0  0  0  0  0  0
   56.9333  156.2738   -6.5536 H   0  0  0  0  0  0  0  0  0  0  0  0
   55.5097  155.3467   -7.0759 H   0  0  0  0  0  0  0  0  0  0  0  0
   55.5326  154.0548   -4.9477 H   0  0  0  0  0  0  0  0  0  0  0  0
   56.9480  154.9687   -4.3845 H   0  0  0  0  0  0  0  0  0  0  0  0
   57.9333  151.5476   -8.5321 H   0  0  0  0  0  0  0  0  0  0  0  0
   52.0012  157.3998   -3.3052 H   0  0  0  0  0  0  0  0  0  0  0  0
  1  3  1  0  0  0  0
  1 10  1  0  0  0  0
  1 12  2  0  0  0  0
  2  9  1  0  0  0  0
  2 10  1  0  0  0  0
  2 13  2  0  0  0  0
  3  9  1  0  0  0  0
  4  6  1  0  0  0  0
  4 11  1  0  0  0  0
  5  6  1  0  0  0  0
  5 11  1  0  0  0  0
  6 14  1  0  0  0  0
  7  8  1  0  0  0  0
  7 10  1  0  0  0  0
  8 11  1  0  0  0  0
  3 15  1  0  0  0  0
  3 16  1  0  0  0  0
  4 17  1  0  0  0  0
  4 18  1  0  0  0  0
  5 19  1  0  0  0  0
  5 20  1  0  0  0  0
  6 21  1  0  0  0  0
  7 22  1  0  0  0  0
  7 23  1  0  0  0  0
  8 24  1  0  0  0  0
  8 25  1  0  0  0  0
  9 26  1  0  0  0  0
 14 27  1  0  0  0  0
M  END
> <FRED Chemgauss4 score>
-5.926830

$$$$
C82561211	P129033962
  -OEChem-05122015083D

 28 28  0     1  0  0  0  0  0999 V2000
   56.0872  159.5044   -2.0244 C   0  0  0  0  0  0  0  0  0  0  0  0
   54.5443  158.3625   -2.7959 C   0  0  0  0  0  0  0  0  0  0  0  0
   59.0610  161.6648   -0.6773 C   0  0  0  0  0  0  0  0  0  0  0  0
   57.0242  159.7095    0.2931 C   0  0  0  0  0  0  0  0  0  0  0  0
   58.2674  160.7763   -1.6276 C   0  0  0  0  0  0  0  0  0  0  0  0
   53.5483  156.1033   -3.3651 C   0  0  0  0  0  0  0  0  0  0  0  0
   56.8811  160.3861   -1.0757 C   0  0  1  0  0  0  0  0  0  0  0  0
   53.3215  157.6152   -3.1193 C   0  0  2  0  0  0  0  0  0  0  0  0
   54.8293  159.0656   -1.7291 N   0  0  0  0  0  0  0  0  0  0  0  0
   56.5782  159.1102   -3.2030 N   0  0  0  0  0  0  0  0  0  0  0  0
   52.6195  158.1535   -4.2854 N   0  0  0  0  0  0  0  0  0  0  0  0
   55.5344  158.3367   -3.7262 O   0  0  0  0  0  0  0  0  0  0  0  0
   54.0761  155.4774   -2.2001 O   0  0  0  0  0  0  0  0  0  0  0  0
   59.1610  161.1760    0.2973 H   0  0  0  0  0  0  0  0  0  0  0  0
   60.0689  161.8604   -1.0558 H   0  0  0  0  0  0  0  0  0  0  0  0
   58.5565  162.6241   -0.5239 H   0  0  0  0  0  0  0  0  0  0  0  0
   57.5756  158.7652    0.2270 H   0  0  0  0  0  0  0  0  0  0  0  0
   57.5624  160.3606    0.9903 H   0  0  0  0  0  0  0  0  0  0  0  0
   56.0421  159.4936    0.7288 H   0  0  0  0  0  0  0  0  0  0  0  0
   58.1769  161.2802   -2.5972 H   0  0  0  0  0  0  0  0  0  0  0  0
   58.8507  159.8639   -1.8047 H   0  0  0  0  0  0  0  0  0  0  0  0
   52.5951  155.6168   -3.5994 H   0  0  0  0  0  0  0  0  0  0  0  0
   54.2438  155.9300   -4.1935 H   0  0  0  0  0  0  0  0  0  0  0  0
   56.3201  161.3161   -0.9101 H   0  0  0  0  0  0  0  0  0  0  0  0
   52.5662  157.6943   -2.3057 H   0  0  0  0  0  0  0  0  0  0  0  0
   52.6051  159.1415   -4.4051 H   0  0  0  0  0  0  0  0  0  0  0  0
   52.0206  157.5408   -4.7921 H   0  0  0  0  0  0  0  0  0  0  0  0
   54.1943  154.5396   -2.4183 H   0  0  0  0  0  0  0  0  0  0  0  0
  1  7  1  0  0  0  0
  1  9  1  0  0  0  0
  1 10  2  0  0  0  0
  2  8  1  0  0  0  0
  2  9  2  0  0  0  0
  2 12  1  0  0  0  0
  3  5  1  0  0  0  0
  4  7  1  0  0  0  0
  5  7  1  0  0  0  0
  6  8  1  0  0  0  0
  6 13  1  0  0  0  0
  8 11  1  0  0  0  0
 10 12  1  0  0  0  0
  3 14  1  0  0  0  0
  3 15  1  0  0  0  0
  3 16  1  0  0  0  0
  4 17  1  0  0  0  0
  4 18  1  0  0  0  0
  4 19  1  0  0  0  0
  5 20  1  0  0  0  0
  5 21  1  0  0  0  0
  6 22  1  0  0  0  0
  6 23  1  0  0  0  0
  7 24  1  0  0  0  0
  8 25  1  0  0  0  0
 11 26  1  0  0  0  0
 11 27  1  0  0  0  0
 13 28  1  0  0  0  0
M  END
> <FRED Chemgauss4 score>
-5.926213

$$$$
C69972231	P107842260
  -OEChem-05122015083D

 24 24  0     1  0  0  0  0  0999 V2000
   55.5512  156.1846   -4.4145 C   0  0  0  0  0  0  0  0  0  0  0  0
   55.0454  153.3972   -6.5333 C   0  0  0  0  0  0  0  0  0  0  0  0
   54.7352  156.5671   -3.2051 C   0  0  0  0  0  0  0  0  0  0  0  0
   53.4090  155.2304   -4.7118 C   0  0  0  0  0  0  0  0  0  0  0  0
   53.5260  155.6362   -3.2536 C   0  0  2  0  0  0  0  0  0  0  0  0
   54.6026  151.4887   -8.0746 C   0  0  0  0  0  0  0  0  0  0  0  0
   55.1115  154.9031   -6.5388 C   0  0  0  0  0  0  0  0  0  0  0  0
   54.7404  155.4101   -5.2349 N   0  0  0  0  0  0  0  0  0  0  0  0
   54.7294  152.8999   -7.7895 N   0  0  0  0  0  0  0  0  0  0  0  0
   56.7030  156.5428   -4.6127 O   0  0  0  0  0  0  0  0  0  0  0  0
   55.2514  152.7153   -5.5328 O   0  0  0  0  0  0  0  0  0  0  0  0
   52.3508  156.3110   -2.8421 O   0  0  0  0  0  0  0  0  0  0  0  0
   55.3453  156.3802   -2.3114 H   0  0  0  0  0  0  0  0  0  0  0  0
   54.4557  157.6267   -3.2579 H   0  0  0  0  0  0  0  0  0  0  0  0
   53.1486  154.1687   -4.8189 H   0  0  0  0  0  0  0  0  0  0  0  0
   52.7003  155.8501   -5.2769 H   0  0  0  0  0  0  0  0  0  0  0  0
   53.6530  154.7576   -2.5900 H   0  0  0  0  0  0  0  0  0  0  0  0
   55.5681  151.0795   -8.3832 H   0  0  0  0  0  0  0  0  0  0  0  0
   53.8794  151.3291   -8.8791 H   0  0  0  0  0  0  0  0  0  0  0  0
   54.2612  150.9526   -7.1851 H   0  0  0  0  0  0  0  0  0  0  0  0
   56.1297  155.2264   -6.7745 H   0  0  0  0  0  0  0  0  0  0  0  0
   54.4221  155.3019   -7.2887 H   0  0  0  0  0  0  0  0  0  0  0  0
   54.5796  153.5606   -8.5466 H   0  0  0  0  0  0  0  0  0  0  0  0
   52.5078  156.6098   -1.9329 H   0  0  0  0  0  0  0  0  0  0  0  0
  1  3  1  0  0  0  0
  1  8  1  0  0  0  0
  1 10  2  0  0  0  0
  2  7  1  0  0  0  0
  2  9  1  0  0  0  0
  2 11  2  0  0  0  0
  3  5  1  0  0  0  0
  4  5  1  0  0  0  0
  4  8  1  0  0  0  0
  5 12  1  0  0  0  0
  6  9  1  0  0  0  0
  7  8  1  0  0  0  0
  3 13  1  0  0  0  0
  3 14  1  0  0  0  0
  4 15  1  0  0  0  0
  4 16  1  0  0  0  0
  5 17  1  0  0  0  0
  6 18  1  0  0  0  0
  6 19  1  0  0  0  0
  6 20  1  0  0  0  0
  7 21  1  0  0  0  0
  7 22  1  0  0  0  0
  9 23  1  0  0  0  0
 12 24  1  0  0  0  0
M  END
> <FRED Chemgauss4 score>
-5.923508

$$$$
C87375881	P136703724
  -OEChem-05122015083D

 27 27  0     0  0  0  0  0  0999 V2000
   57.6900  154.2999   -6.6873 C   0  0  0  0  0  0  0  0  0  0  0  0
   57.8942  155.5686   -6.1863 C   0  0  0  0  0  0  0  0  0  0  0  0
   55.5957  154.8748   -6.3818 C   0  0  0  0  0  0  0  0  0  0  0  0
   58.7423  153.3496   -7.1021 C   0  0  0  0  0  0  0  0  0  0  0  0
   59.1515  156.3014   -5.9353 C   0  0  0  0  0  0  0  0  0  0  0  0
   54.0960  154.8119   -6.3508 C   0  0  0  0  0  0  0  0  0  0  0  0
   53.0396  155.7720   -2.8701 C   0  0  0  0  0  0  0  0  0  0  0  0
   53.6399  154.9503   -3.9984 C   0  0  0  0  0  0  0  0  0  0  0  0
   56.3727  153.9002   -6.7997 N   0  0  0  0  0  0  0  0  0  0  0  0
   53.6774  157.0540   -2.7336 N   0  0  0  0  0  0  0  0  0  0  0  0
   53.5363  155.6199   -5.2666 N   0  0  0  0  0  0  0  0  0  0  0  0
   56.3823  156.3006   -5.8403 S   0  0  0  0  0  0  0  0  0  0  0  0
   59.0557  152.7130   -6.2592 H   0  0  0  0  0  0  0  0  0  0  0  0
   58.4024  152.6870   -7.9156 H   0  0  0  0  0  0  0  0  0  0  0  0
   59.6384  153.8673   -7.4839 H   0  0  0  0  0  0  0  0  0  0  0  0
   59.4570  156.8801   -6.8220 H   0  0  0  0  0  0  0  0  0  0  0  0
   59.0580  157.0051   -5.0909 H   0  0  0  0  0  0  0  0  0  0  0  0
   59.9809  155.6218   -5.6758 H   0  0  0  0  0  0  0  0  0  0  0  0
   53.6747  155.1754   -7.2944 H   0  0  0  0  0  0  0  0  0  0  0  0
   53.7485  153.7823   -6.2148 H   0  0  0  0  0  0  0  0  0  0  0  0
   53.1312  155.2571   -1.9085 H   0  0  0  0  0  0  0  0  0  0  0  0
   51.9792  155.9601   -3.0650 H   0  0  0  0  0  0  0  0  0  0  0  0
   54.7041  154.7742   -3.8141 H   0  0  0  0  0  0  0  0  0  0  0  0
   53.1396  153.9814   -4.0960 H   0  0  0  0  0  0  0  0  0  0  0  0
   54.6761  157.1203   -2.8485 H   0  0  0  0  0  0  0  0  0  0  0  0
   53.1605  157.8190   -2.3301 H   0  0  0  0  0  0  0  0  0  0  0  0
   52.5530  155.8158   -5.4846 H   0  0  0  0  0  0  0  0  0  0  0  0
  1  2  2  0  0  0  0
  1  4  1  0  0  0  0
  1  9  1  0  0  0  0
  2  5  1  0  0  0  0
  2 12  1  0  0  0  0
  3  6  1  0  0  0  0
  3  9  2  0  0  0  0
  3 12  1  0  0  0  0
  6 11  1  0  0  0  0
  7  8  1  0  0  0  0
  7 10  1  0  0  0  0
  8 11  1  0  0  0  0
  4 13  1  0  0  0  0
  4 14  1  0  0  0  0
  4 15  1  0  0  0  0
  5 16  1  0  0  0  0
  5 17  1  0  0  0  0
  5 18  1  0  0  0  0
  6 19  1  0  0  0  0
  6 20  1  0  0  0  0
  7 21  1  0  0  0  0
  7 22  1  0  0  0  0
  8 23  1  0  0  0  0
  8 24  1  0  0  0  0
 10 25  1  0  0  0  0
 10 26  1  0  0  0  0
 11 27  1  0  0  0  0
M  END
> <FRED Chemgauss4 score>
-5.920253

$$$$
C97361815	P154194864
  -OEChem-05122015083D

 36 37  0     1  0  0  0  0  0999 V2000
   56.6469  157.3452   -5.2771 C   0  0  0  0  0  0  0  0  0  0  0  0
   54.3859  155.7165   -5.1439 C   0  0  0  0  0  0  0  0  0  0  0  0
   55.4949  157.8023   -4.6373 C   0  0  0  0  0  0  0  0  0  0  0  0
   54.3643  156.9880   -4.5706 C   0  0  0  0  0  0  0  0  0  0  0  0
   56.6684  156.0737   -5.8505 C   0  0  0  0  0  0  0  0  0  0  0  0
   55.5379  155.2594   -5.7838 C   0  0  0  0  0  0  0  0  0  0  0  0
   57.9115  159.3727   -1.2172 C   0  0  0  0  0  0  0  0  0  0  0  0
   57.6887  161.0338   -3.0840 C   0  0  0  0  0  0  0  0  0  0  0  0
   59.3770  159.7800   -1.1242 C   0  0  0  0  0  0  0  0  0  0  0  0
   59.1666  161.3484   -2.8862 C   0  0  0  0  0  0  0  0  0  0  0  0
   57.3748  159.6022   -2.6346 C   0  0  0  0  0  0  0  0  0  0  0  0
   55.0729  160.2350   -4.8909 C   0  0  0  0  0  0  0  0  0  0  0  0
   55.8774  159.3177   -2.7092 C   0  0  0  0  0  0  0  0  0  0  0  0
   53.1874  157.4310   -3.9261 N   0  0  0  0  0  0  0  0  0  0  0  0
   55.4952  159.0922   -4.0628 N   0  0  3  0  0  0  0  0  0  0  0  0
   59.5515  161.1376   -1.5282 O   0  0  0  0  0  0  0  0  0  0  0  0
   57.7831  155.6483   -6.4620 F   0  0  0  0  0  0  0  0  0  0  0  0
   55.5599  153.6877   -6.4862 Cl  0  0  0  0  0  0  0  0  0  0  0  0
   57.5339  157.9708   -5.3359 H   0  0  0  0  0  0  0  0  0  0  0  0
   53.5026  155.0836   -5.0905 H   0  0  0  0  0  0  0  0  0  0  0  0
   57.7951  158.3225   -0.9270 H   0  0  0  0  0  0  0  0  0  0  0  0
   57.3299  159.9774   -0.5097 H   0  0  0  0  0  0  0  0  0  0  0  0
   57.0933  161.7374   -2.4883 H   0  0  0  0  0  0  0  0  0  0  0  0
   57.4131  161.1759   -4.1349 H   0  0  0  0  0  0  0  0  0  0  0  0
   59.7218  159.6934   -0.0889 H   0  0  0  0  0  0  0  0  0  0  0  0
   60.0114  159.1313   -1.7396 H   0  0  0  0  0  0  0  0  0  0  0  0
   59.7960  160.7368   -3.5432 H   0  0  0  0  0  0  0  0  0  0  0  0
   59.3589  162.3985   -3.1282 H   0  0  0  0  0  0  0  0  0  0  0  0
   57.8862  158.9072   -3.3141 H   0  0  0  0  0  0  0  0  0  0  0  0
   55.1264  161.1597   -4.3104 H   0  0  0  0  0  0  0  0  0  0  0  0
   54.0443  160.0937   -5.2337 H   0  0  0  0  0  0  0  0  0  0  0  0
   55.7235  160.3296   -5.7644 H   0  0  0  0  0  0  0  0  0  0  0  0
   55.3404  160.1746   -2.3235 H   0  0  0  0  0  0  0  0  0  0  0  0
   55.6563  158.4353   -2.1234 H   0  0  0  0  0  0  0  0  0  0  0  0
   52.3793  156.8443   -3.9347 H   0  0  0  0  0  0  0  0  0  0  0  0
   53.1563  158.3585   -3.5572 H   0  0  0  0  0  0  0  0  0  0  0  0
  1  3  1  0  0  0  0
  1  5  2  0  0  0  0
  2  4  1  0  0  0  0
  2  6  2  0  0  0  0
  3  4  2  0  0  0  0
  3 15  1  0  0  0  0
  4 14  1  0  0  0  0
  5  6  1  0  0  0  0
  5 17  1  0  0  0  0
  6 18  1  0  0  0  0
  7  9  1  0  0  0  0
  7 11  1  0  0  0  0
  8 10  1  0  0  0  0
  8 11  1  0  0  0  0
  9 16  1  0  0  0  0
 10 16  1  0  0  0  0
 11 13  1  0  0  0  0
 12 15  1  0  0  0  0
 13 15  1  0  0  0  0
  1 19  1  0  0  0  0
  2 20  1  0  0  0  0
  7 21  1  0  0  0  0
  7 22  1  0  0  0  0
  8 23  1  0  0  0  0
  8 24  1  0  0  0  0
  9 25  1  0  0  0  0
  9 26  1  0  0  0  0
 10 27  1  0  0  0  0
 10 28  1  0  0  0  0
 11 29  1  0  0  0  0
 12 30  1  0  0  0  0
 12 31  1  0  0  0  0
 12 32  1  0  0  0  0
 13 33  1  0  0  0  0
 13 34  1  0  0  0  0
 14 35  1  0  0  0  0
 14 36  1  0  0  0  0
M  END
> <FRED Chemgauss4 score>
-5.919043

$$$$
C37919944	P56983499
  -OEChem-05122015083D

 26 27  0     1  0  0  0  0  0999 V2000
   54.5324  157.5641   -4.8655 C   0  0  0  0  0  0  0  0  0  0  0  0
   55.1608  157.5908   -2.8751 C   0  0  0  0  0  0  0  0  0  0  0  0
   57.8108  161.2934    0.4399 C   0  0  0  0  0  0  0  0  0  0  0  0
   58.2099  159.4371   -0.8739 C   0  0  0  0  0  0  0  0  0  0  0  0
   56.8177  160.2654    0.9055 C   0  0  0  0  0  0  0  0  0  0  0  0
   57.0003  159.0920   -0.0455 C   0  0  1  0  0  0  0  0  0  0  0  0
   59.6935  161.4165   -1.1743 C   0  0  0  0  0  0  0  0  0  0  0  0
   55.9510  157.6211   -1.5988 C   0  0  0  0  0  0  0  0  0  0  0  0
   55.6562  157.6030   -4.0908 N   0  0  0  0  0  0  0  0  0  0  0  0
   53.8027  157.5466   -2.9348 N   0  0  0  0  0  0  0  0  0  0  0  0
   53.3728  157.5287   -4.2056 N   0  0  0  0  0  0  0  0  0  0  0  0
   58.5973  160.7160   -0.5331 N   0  0  0  0  0  0  0  0  0  0  0  0
   55.9065  158.9299   -0.9612 N   0  0  0  0  0  0  0  0  0  0  0  0
   57.8852  162.4277    0.8919 O   0  0  0  0  0  0  0  0  0  0  0  0
   58.6889  158.7136   -1.7368 O   0  0  0  0  0  0  0  0  0  0  0  0
   54.5775  157.5622   -5.9466 H   0  0  0  0  0  0  0  0  0  0  0  0
   57.0616  159.9776    1.9333 H   0  0  0  0  0  0  0  0  0  0  0  0
   55.8072  160.6859    0.8894 H   0  0  0  0  0  0  0  0  0  0  0  0
   57.1891  158.1649    0.4999 H   0  0  0  0  0  0  0  0  0  0  0  0
   60.6200  161.2546   -0.6173 H   0  0  0  0  0  0  0  0  0  0  0  0
   59.4871  162.4897   -1.2096 H   0  0  0  0  0  0  0  0  0  0  0  0
   59.8289  161.0519   -2.1961 H   0  0  0  0  0  0  0  0  0  0  0  0
   55.5621  156.8854   -0.8864 H   0  0  0  0  0  0  0  0  0  0  0  0
   57.0019  157.3732   -1.7814 H   0  0  0  0  0  0  0  0  0  0  0  0
   52.3888  157.4961   -4.4579 H   0  0  0  0  0  0  0  0  0  0  0  0
   55.0274  159.0263   -0.4538 H   0  0  0  0  0  0  0  0  0  0  0  0
  1  9  2  0  0  0  0
  1 11  1  0  0  0  0
  2  8  1  0  0  0  0
  2  9  1  0  0  0  0
  2 10  2  0  0  0  0
  3  5  1  0  0  0  0
  3 12  1  0  0  0  0
  3 14  2  0  0  0  0
  4  6  1  0  0  0  0
  4 12  1  0  0  0  0
  4 15  2  0  0  0  0
  5  6  1  0  0  0  0
  6 13  1  0  0  0  0
  7 12  1  0  0  0  0
  8 13  1  0  0  0  0
 10 11  1  0  0  0  0
  1 16  1  0  0  0  0
  5 17  1  0  0  0  0
  5 18  1  0  0  0  0
  6 19  1  0  0  0  0
  7 20  1  0  0  0  0
  7 21  1  0  0  0  0
  7 22  1  0  0  0  0
  8 23  1  0  0  0  0
  8 24  1  0  0  0  0
 11 25  1  0  0  0  0
 13 26  1  0  0  0  0
M  END
> <FRED Chemgauss4 score>
-5.918027

$$$$
C93975550	P147291564
  -OEChem-05122015083D

 36 37  0     0  0  0  0  0  0999 V2000
   55.9129  158.1618   -2.5106 C   0  0  0  0  0  0  0  0  0  0  0  0
   55.0854  157.2942   -2.5823 C   0  0  0  0  0  0  0  0  0  0  0  0
   57.3978  159.8908   -3.5001 C   0  0  0  0  0  0  0  0  0  0  0  0
   58.5635  160.8622   -1.7395 C   0  0  0  0  0  0  0  0  0  0  0  0
   56.8938  159.1915   -2.4255 C   0  0  0  0  0  0  0  0  0  0  0  0
   58.3651  160.8585   -3.1027 C   0  0  0  0  0  0  0  0  0  0  0  0
   59.0949  161.7735   -4.0177 C   0  0  0  0  0  0  0  0  0  0  0  0
   60.7606  159.9740   -7.4656 C   0  0  0  0  0  0  0  0  0  0  0  0
   61.6621  156.7069   -7.7714 C   0  0  0  0  0  0  0  0  0  0  0  0
   62.9004  157.0020   -8.5644 C   0  0  0  0  0  0  0  0  0  0  0  0
   61.7561  157.9784   -8.5696 C   0  0  0  0  0  0  0  0  0  0  0  0
   54.0798  156.2361   -2.6698 C   0  0  0  0  0  0  0  0  0  0  0  0
   61.1686  161.2875   -6.8229 C   0  0  0  0  0  0  0  0  0  0  0  0
   59.9741  162.0846   -6.3169 C   0  0  0  0  0  0  0  0  0  0  0  0
   59.2658  161.3218   -5.3183 N   0  0  0  0  0  0  0  0  0  0  0  0
   61.8626  159.2641   -7.9193 N   0  0  0  0  0  0  0  0  0  0  0  0
   59.5165  162.8432   -3.5860 O   0  0  0  0  0  0  0  0  0  0  0  0
   59.5929  159.6056   -7.5592 O   0  0  0  0  0  0  0  0  0  0  0  0
   52.8015  156.7620   -2.3421 O   0  0  0  0  0  0  0  0  0  0  0  0
   57.5860  159.7023   -0.9449 S   0  0  0  0  0  0  0  0  0  0  0  0
   57.0898  159.7196   -4.5250 H   0  0  0  0  0  0  0  0  0  0  0  0
   59.2341  161.4876   -1.1661 H   0  0  0  0  0  0  0  0  0  0  0  0
   61.0106  155.9192   -8.1298 H   0  0  0  0  0  0  0  0  0  0  0  0
   61.7234  156.7830   -6.6928 H   0  0  0  0  0  0  0  0  0  0  0  0
   63.7951  157.2770   -8.0196 H   0  0  0  0  0  0  0  0  0  0  0  0
   63.0802  156.4125   -9.4549 H   0  0  0  0  0  0  0  0  0  0  0  0
   61.1633  158.0277   -9.4765 H   0  0  0  0  0  0  0  0  0  0  0  0
   54.0367  155.8257   -3.6832 H   0  0  0  0  0  0  0  0  0  0  0  0
   54.3101  155.4247   -1.9728 H   0  0  0  0  0  0  0  0  0  0  0  0
   61.8527  161.0684   -5.9937 H   0  0  0  0  0  0  0  0  0  0  0  0
   61.7268  161.8753   -7.5623 H   0  0  0  0  0  0  0  0  0  0  0  0
   59.2930  162.3223   -7.1412 H   0  0  0  0  0  0  0  0  0  0  0  0
   60.3021  163.0347   -5.8814 H   0  0  0  0  0  0  0  0  0  0  0  0
   58.9424  160.3961   -5.5841 H   0  0  0  0  0  0  0  0  0  0  0  0
   62.7861  159.6664   -7.7883 H   0  0  0  0  0  0  0  0  0  0  0  0
   52.1693  156.0283   -2.4132 H   0  0  0  0  0  0  0  0  0  0  0  0
  1  2  3  0  0  0  0
  1  5  1  0  0  0  0
  2 12  1  0  0  0  0
  3  5  2  0  0  0  0
  3  6  1  0  0  0  0
  4  6  2  0  0  0  0
  4 20  1  0  0  0  0
  5 20  1  0  0  0  0
  6  7  1  0  0  0  0
  7 15  1  0  0  0  0
  7 17  2  0  0  0  0
  8 13  1  0  0  0  0
  8 16  1  0  0  0  0
  8 18  2  0  0  0  0
  9 10  1  0  0  0  0
  9 11  1  0  0  0  0
 10 11  1  0  0  0  0
 11 16  1  0  0  0  0
 12 19  1  0  0  0  0
 13 14  1  0  0  0  0
 14 15  1  0  0  0  0
  3 21  1  0  0  0  0
  4 22  1  0  0  0  0
  9 23  1  0  0  0  0
  9 24  1  0  0  0  0
 10 25  1  0  0  0  0
 10 26  1  0  0  0  0
 11 27  1  0  0  0  0
 12 28  1  0  0  0  0
 12 29  1  0  0  0  0
 13 30  1  0  0  0  0
 13 31  1  0  0  0  0
 14 32  1  0  0  0  0
 14 33  1  0  0  0  0
 15 34  1  0  0  0  0
 16 35  1  0  0  0  0
 19 36  1  0  0  0  0
M  END
> <FRED Chemgauss4 score>
-5.917408

$$$$
C37820463	P56254837
  -OEChem-05122015083D

 46 46  0     1  0  0  0  0  0999 V2000
   57.7707  157.2784   -5.7272 C   0  0  0  0  0  0  0  0  0  0  0  0
   57.3979  153.8075   -6.4812 C   0  0  0  0  0  0  0  0  0  0  0  0
   55.9382  153.6992   -6.9245 C   0  0  0  0  0  0  0  0  0  0  0  0
   58.0147  155.1294   -6.9280 C   0  0  0  0  0  0  0  0  0  0  0  0
   55.8005  156.2228   -6.9433 C   0  0  0  0  0  0  0  0  0  0  0  0
   55.1049  154.9233   -6.5099 C   0  0  2  0  0  0  0  0  0  0  0  0
   59.3308  161.7710   -4.4288 C   0  0  0  0  0  0  0  0  0  0  0  0
   55.6830  160.5775   -3.8124 C   0  0  0  0  0  0  0  0  0  0  0  0
   56.8610  158.4075   -5.3134 C   0  0  0  0  0  0  0  0  0  0  0  0
   54.8142  154.9275   -5.0063 C   0  0  0  0  0  0  0  0  0  0  0  0
   57.9577  161.6579   -3.7790 C   0  0  0  0  0  0  0  0  0  0  0  0
   57.0433  160.6572   -4.4973 C   0  0  1  0  0  0  0  0  0  0  0  0
   57.1974  156.2618   -6.4903 N   0  0  0  0  0  0  0  0  0  0  0  0
   54.2771  157.1814   -2.5649 N   0  0  0  0  0  0  0  0  0  0  0  0
   57.6509  159.3242   -4.5488 N   0  0  0  0  0  0  0  0  0  0  0  0
   53.7039  155.7763   -4.7317 N   0  0  0  0  0  0  0  0  0  0  0  0
   58.9541  157.2995   -5.3794 O   0  0  0  0  0  0  0  0  0  0  0  0
   51.8366  156.5735   -3.0884 O   0  0  0  0  0  0  0  0  0  0  0  0
   53.4258  154.7584   -2.3641 O   0  0  0  0  0  0  0  0  0  0  0  0
   53.1632  155.9861   -3.0905 S   0  0  0  0  0  0  0  0  0  0  0  0
   57.4631  153.7146   -5.3915 H   0  0  0  0  0  0  0  0  0  0  0  0
   57.9669  152.9746   -6.9130 H   0  0  0  0  0  0  0  0  0  0  0  0
   55.8986  153.5713   -8.0188 H   0  0  0  0  0  0  0  0  0  0  0  0
   55.4974  152.7839   -6.4933 H   0  0  0  0  0  0  0  0  0  0  0  0
   59.0120  155.2560   -6.4890 H   0  0  0  0  0  0  0  0  0  0  0  0
   58.1350  155.1313   -8.0163 H   0  0  0  0  0  0  0  0  0  0  0  0
   55.7254  156.3345   -8.0300 H   0  0  0  0  0  0  0  0  0  0  0  0
   55.2978  157.0970   -6.5032 H   0  0  0  0  0  0  0  0  0  0  0  0
   54.1356  154.8657   -7.0410 H   0  0  0  0  0  0  0  0  0  0  0  0
   59.2540  162.0814   -5.4753 H   0  0  0  0  0  0  0  0  0  0  0  0
   59.9359  162.5159   -3.9023 H   0  0  0  0  0  0  0  0  0  0  0  0
   59.8624  160.8148   -4.3904 H   0  0  0  0  0  0  0  0  0  0  0  0
   55.7869  160.2625   -2.7690 H   0  0  0  0  0  0  0  0  0  0  0  0
   55.1724  161.5470   -3.8288 H   0  0  0  0  0  0  0  0  0  0  0  0
   55.0340  159.8556   -4.3204 H   0  0  0  0  0  0  0  0  0  0  0  0
   56.0537  157.9915   -4.7180 H   0  0  0  0  0  0  0  0  0  0  0  0
   56.4725  158.8767   -6.2125 H   0  0  0  0  0  0  0  0  0  0  0  0
   55.6867  155.2985   -4.4845 H   0  0  0  0  0  0  0  0  0  0  0  0
   54.5813  153.9196   -4.6897 H   0  0  0  0  0  0  0  0  0  0  0  0
   58.0944  161.3454   -2.7366 H   0  0  0  0  0  0  0  0  0  0  0  0
   57.4917  162.6509   -3.7587 H   0  0  0  0  0  0  0  0  0  0  0  0
   56.8973  160.9746   -5.5363 H   0  0  0  0  0  0  0  0  0  0  0  0
   54.1978  158.0966   -3.0286 H   0  0  0  0  0  0  0  0  0  0  0  0
   55.2610  156.8829   -2.5229 H   0  0  0  0  0  0  0  0  0  0  0  0
   57.7613  158.9873   -3.5836 H   0  0  0  0  0  0  0  0  0  0  0  0
   53.6485  156.6600   -5.2960 H   0  0  0  0  0  0  0  0  0  0  0  0
  1  9  1  0  0  0  0
  1 13  1  0  0  0  0
  1 17  2  0  0  0  0
  2  3  1  0  0  0  0
  2  4  1  0  0  0  0
  3  6  1  0  0  0  0
  4 13  1  0  0  0  0
  5  6  1  0  0  0  0
  5 13  1  0  0  0  0
  6 10  1  0  0  0  0
  7 11  1  0  0  0  0
  8 12  1  0  0  0  0
  9 15  1  0  0  0  0
 10 16  1  0  0  0  0
 11 12  1  0  0  0  0
 12 15  1  0  0  0  0
 14 20  1  0  0  0  0
 16 20  1  0  0  0  0
 18 20  2  0  0  0  0
 19 20  2  0  0  0  0
  2 21  1  0  0  0  0
  2 22  1  0  0  0  0
  3 23  1  0  0  0  0
  3 24  1  0  0  0  0
  4 25  1  0  0  0  0
  4 26  1  0  0  0  0
  5 27  1  0  0  0  0
  5 28  1  0  0  0  0
  6 29  1  0  0  0  0
  7 30  1  0  0  0  0
  7 31  1  0  0  0  0
  7 32  1  0  0  0  0
  8 33  1  0  0  0  0
  8 34  1  0  0  0  0
  8 35  1  0  0  0  0
  9 36  1  0  0  0  0
  9 37  1  0  0  0  0
 10 38  1  0  0  0  0
 10 39  1  0  0  0  0
 11 40  1  0  0  0  0
 11 41  1  0  0  0  0
 12 42  1  0  0  0  0
 14 43  1  0  0  0  0
 14 44  1  0  0  0  0
 15 45  1  0  0  0  0
 16 46  1  0  0  0  0
M  END
> <FRED Chemgauss4 score>
-5.913456

$$$$
C38124694	P57326764
  -OEChem-05122015083D

 21 21  0     1  0  0  0  0  0999 V2000
   55.8926  157.3608   -5.3761 C   0  0  0  0  0  0  0  0  0  0  0  0
   56.2198  155.2494   -5.8957 C   0  0  0  0  0  0  0  0  0  0  0  0
   55.3840  156.0641   -5.1718 C   0  0  0  0  0  0  0  0  0  0  0  0
   58.2335  155.6776   -7.3242 C   0  0  0  0  0  0  0  0  0  0  0  0
   54.3337  156.0564   -2.8691 C   0  0  0  0  0  0  0  0  0  0  0  0
   54.1873  155.6564   -4.3396 C   0  0  1  0  0  0  0  0  0  0  0  0
   56.9683  157.3739   -6.1677 N   0  0  0  0  0  0  0  0  0  0  0  0
   57.1425  156.0754   -6.4672 N   0  0  0  0  0  0  0  0  0  0  0  0
   52.9661  156.1973   -4.8972 N   0  0  0  0  0  0  0  0  0  0  0  0
   53.4744  155.2453   -2.0745 O   0  0  0  0  0  0  0  0  0  0  0  0
   55.5265  158.2981   -4.9815 H   0  0  0  0  0  0  0  0  0  0  0  0
   56.2369  154.1788   -6.0481 H   0  0  0  0  0  0  0  0  0  0  0  0
   57.8747  155.6944   -8.3567 H   0  0  0  0  0  0  0  0  0  0  0  0
   59.0679  156.3730   -7.1980 H   0  0  0  0  0  0  0  0  0  0  0  0
   58.5611  154.6713   -7.0485 H   0  0  0  0  0  0  0  0  0  0  0  0
   55.3592  155.8939   -2.5196 H   0  0  0  0  0  0  0  0  0  0  0  0
   54.0679  157.1059   -2.7014 H   0  0  0  0  0  0  0  0  0  0  0  0
   54.0611  154.5675   -4.3909 H   0  0  0  0  0  0  0  0  0  0  0  0
   52.1629  156.2866   -4.3029 H   0  0  0  0  0  0  0  0  0  0  0  0
   52.8857  156.2778   -5.8940 H   0  0  0  0  0  0  0  0  0  0  0  0
   53.5969  155.5293   -1.1550 H   0  0  0  0  0  0  0  0  0  0  0  0
  1  3  1  0  0  0  0
  1  7  2  0  0  0  0
  2  3  2  0  0  0  0
  2  8  1  0  0  0  0
  3  6  1  0  0  0  0
  4  8  1  0  0  0  0
  5  6  1  0  0  0  0
  5 10  1  0  0  0  0
  6  9  1  0  0  0  0
  7  8  1  0  0  0  0
  1 11  1  0  0  0  0
  2 12  1  0  0  0  0
  4 13  1  0  0  0  0
  4 14  1  0  0  0  0
  4 15  1  0  0  0  0
  5 16  1  0  0  0  0
  5 17  1  0  0  0  0
  6 18  1  0  0  0  0
  9 19  1  0  0  0  0
  9 20  1  0  0  0  0
 10 21  1  0  0  0  0
M  END
> <FRED Chemgauss4 score>
-5.906692

$$$$
C86827631	P135917923
  -OEChem-05122015083D

 23 24  0     1  0  0  0  0  0999 V2000
   55.3957  156.9586   -3.6966 C   0  0  0  0  0  0  0  0  0  0  0  0
   58.7633  154.9658   -6.5221 C   0  0  0  0  0  0  0  0  0  0  0  0
   55.0477  156.9812   -2.3660 C   0  0  0  0  0  0  0  0  0  0  0  0
   53.4370  155.9344   -3.3952 C   0  0  0  0  0  0  0  0  0  0  0  0
   58.1538  153.7347   -6.3988 C   0  0  0  0  0  0  0  0  0  0  0  0
   54.3495  156.2790   -4.3650 C   0  0  0  0  0  0  0  0  0  0  0  0
   56.6726  155.6261   -6.5759 C   0  0  0  0  0  0  0  0  0  0  0  0
   55.4580  156.5226   -6.6570 C   0  0  0  0  0  0  0  0  0  0  0  0
   54.2521  155.9877   -5.8528 C   0  0  2  0  0  0  0  0  0  0  0  0
   57.9155  156.0514   -6.6241 N   0  0  0  0  0  0  0  0  0  0  0  0
   53.0028  156.5247   -6.4090 N   0  0  0  0  0  0  0  0  0  0  0  0
   53.8552  156.3588   -2.1739 O   0  0  0  0  0  0  0  0  0  0  0  0
   56.4502  153.9328   -6.4080 S   0  0  0  0  0  0  0  0  0  0  0  0
   56.2925  157.3808   -4.1273 H   0  0  0  0  0  0  0  0  0  0  0  0
   59.8325  155.1284   -6.5426 H   0  0  0  0  0  0  0  0  0  0  0  0
   55.5155  157.3795   -1.4776 H   0  0  0  0  0  0  0  0  0  0  0  0
   52.4902  155.4138   -3.4082 H   0  0  0  0  0  0  0  0  0  0  0  0
   58.6130  152.7610   -6.3046 H   0  0  0  0  0  0  0  0  0  0  0  0
   55.1858  156.6174   -7.7176 H   0  0  0  0  0  0  0  0  0  0  0  0
   55.7266  157.5372   -6.3345 H   0  0  0  0  0  0  0  0  0  0  0  0
   54.2020  154.8997   -5.9885 H   0  0  0  0  0  0  0  0  0  0  0  0
   52.1991  156.5179   -5.8261 H   0  0  0  0  0  0  0  0  0  0  0  0
   52.9639  156.6776   -7.3893 H   0  0  0  0  0  0  0  0  0  0  0  0
  1  3  2  0  0  0  0
  1  6  1  0  0  0  0
  2  5  2  0  0  0  0
  2 10  1  0  0  0  0
  3 12  1  0  0  0  0
  4  6  2  0  0  0  0
  4 12  1  0  0  0  0
  5 13  1  0  0  0  0
  6  9  1  0  0  0  0
  7  8  1  0  0  0  0
  7 10  2  0  0  0  0
  7 13  1  0  0  0  0
  8  9  1  0  0  0  0
  9 11  1  0  0  0  0
  1 14  1  0  0  0  0
  2 15  1  0  0  0  0
  3 16  1  0  0  0  0
  4 17  1  0  0  0  0
  5 18  1  0  0  0  0
  8 19  1  0  0  0  0
  8 20  1  0  0  0  0
  9 21  1  0  0  0  0
 11 22  1  0  0  0  0
 11 23  1  0  0  0  0
M  END
> <FRED Chemgauss4 score>
-5.899140

$$$$
C85248959	P133376742
  -OEChem-05122015083D

 25 25  0     1  0  0  0  0  0999 V2000
   56.7027  155.4554   -6.1164 C   0  0  0  0  0  0  0  0  0  0  0  0
   57.4766  154.1618   -6.2396 C   0  0  0  0  0  0  0  0  0  0  0  0
   55.1283  153.6922   -6.0120 C   0  0  0  0  0  0  0  0  0  0  0  0
   56.4067  153.1411   -6.6155 C   0  0  1  0  0  0  0  0  0  0  0  0
   54.2801  156.0555   -5.7556 C   0  0  0  0  0  0  0  0  0  0  0  0
   53.2340  155.1378   -3.6177 C   0  0  0  0  0  0  0  0  0  0  0  0
   54.0481  156.2579   -4.2582 C   0  0  2  0  0  0  0  0  0  0  0  0
   55.3569  155.1201   -5.9988 N   0  0  0  0  0  0  0  0  0  0  0  0
   57.2103  156.5667   -6.0842 O   0  0  0  0  0  0  0  0  0  0  0  0
   56.2658  153.0895   -8.0327 O   0  0  0  0  0  0  0  0  0  0  0  0
   52.7035  155.6040   -2.3807 O   0  0  0  0  0  0  0  0  0  0  0  0
   53.3686  157.4949   -4.0403 O   0  0  0  0  0  0  0  0  0  0  0  0
   58.2552  154.2610   -7.0006 H   0  0  0  0  0  0  0  0  0  0  0  0
   57.9156  153.9378   -5.2622 H   0  0  0  0  0  0  0  0  0  0  0  0
   54.2371  153.4650   -6.6043 H   0  0  0  0  0  0  0  0  0  0  0  0
   54.9941  153.3678   -4.9751 H   0  0  0  0  0  0  0  0  0  0  0  0
   56.6403  152.1320   -6.2645 H   0  0  0  0  0  0  0  0  0  0  0  0
   53.3723  155.6616   -6.2248 H   0  0  0  0  0  0  0  0  0  0  0  0
   54.5184  157.0107   -6.2350 H   0  0  0  0  0  0  0  0  0  0  0  0
   53.8608  154.2650   -3.4104 H   0  0  0  0  0  0  0  0  0  0  0  0
   52.3896  154.8433   -4.2491 H   0  0  0  0  0  0  0  0  0  0  0  0
   55.0161  156.3389   -3.7495 H   0  0  0  0  0  0  0  0  0  0  0  0
   57.1299  152.8281   -8.3870 H   0  0  0  0  0  0  0  0  0  0  0  0
   52.1943  154.8697   -2.0034 H   0  0  0  0  0  0  0  0  0  0  0  0
   53.9425  158.1887   -4.3982 H   0  0  0  0  0  0  0  0  0  0  0  0
  1  2  1  0  0  0  0
  1  8  1  0  0  0  0
  1  9  2  0  0  0  0
  2  4  1  0  0  0  0
  3  4  1  0  0  0  0
  3  8  1  0  0  0  0
  4 10  1  0  0  0  0
  5  7  1  0  0  0  0
  5  8  1  0  0  0  0
  6  7  1  0  0  0  0
  6 11  1  0  0  0  0
  7 12  1  0  0  0  0
  2 13  1  0  0  0  0
  2 14  1  0  0  0  0
  3 15  1  0  0  0  0
  3 16  1  0  0  0  0
  4 17  1  0  0  0  0
  5 18  1  0  0  0  0
  5 19  1  0  0  0  0
  6 20  1  0  0  0  0
  6 21  1  0  0  0  0
  7 22  1  0  0  0  0
 10 23  1  0  0  0  0
 11 24  1  0  0  0  0
 12 25  1  0  0  0  0
M  END
> <FRED Chemgauss4 score>
-5.898337

$$$$
C39058911	P151021703
  -OEChem-05122015083D

 21 21  0     1  0  0  0  0  0999 V2000
   53.9013  156.1074   -3.8047 C   0  0  0  0  0  0  0  0  0  0  0  0
   53.5362  155.0856   -4.8637 C   0  0  2  0  0  0  0  0  0  0  0  0
   54.9037  154.6574   -5.4320 C   0  0  1  0  0  0  0  0  0  0  0  0
   55.8233  155.8599   -5.1741 C   0  0  1  0  0  0  0  0  0  0  0  0
   55.8975  156.8215   -6.3551 C   0  0  0  0  0  0  0  0  0  0  0  0
   55.2184  156.4971   -4.0273 N   0  0  0  0  0  0  0  0  0  0  0  0
   52.7095  155.7781   -5.8440 N   0  0  0  0  0  0  0  0  0  0  0  0
   55.3853  153.4837   -4.6910 N   0  0  0  0  0  0  0  0  0  0  0  0
   53.1490  156.5301   -2.9389 O   0  0  0  0  0  0  0  0  0  0  0  0
   54.5941  157.3039   -6.6272 O   0  0  0  0  0  0  0  0  0  0  0  0
   52.9822  154.2522   -4.4190 H   0  0  0  0  0  0  0  0  0  0  0  0
   54.8534  154.3813   -6.4909 H   0  0  0  0  0  0  0  0  0  0  0  0
   56.8411  155.5587   -4.9011 H   0  0  0  0  0  0  0  0  0  0  0  0
   56.2801  156.3031   -7.2346 H   0  0  0  0  0  0  0  0  0  0  0  0
   56.5486  157.6616   -6.1118 H   0  0  0  0  0  0  0  0  0  0  0  0
   55.6952  157.1872   -3.4554 H   0  0  0  0  0  0  0  0  0  0  0  0
   52.0676  156.4689   -5.5164 H   0  0  0  0  0  0  0  0  0  0  0  0
   52.6621  155.4052   -6.7689 H   0  0  0  0  0  0  0  0  0  0  0  0
   56.3658  153.3321   -4.6560 H   0  0  0  0  0  0  0  0  0  0  0  0
   54.7177  152.7940   -4.4374 H   0  0  0  0  0  0  0  0  0  0  0  0
   54.6671  157.9131   -7.3815 H   0  0  0  0  0  0  0  0  0  0  0  0
  1  2  1  0  0  0  0
  1  6  1  0  0  0  0
  1  9  2  0  0  0  0
  2  3  1  0  0  0  0
  2  7  1  0  0  0  0
  3  4  1  0  0  0  0
  3  8  1  0  0  0  0
  4  5  1  0  0  0  0
  4  6  1  0  0  0  0
  5 10  1  0  0  0  0
  2 11  1  0  0  0  0
  3 12  1  0  0  0  0
  4 13  1  0  0  0  0
  5 14  1  0  0  0  0
  5 15  1  0  0  0  0
  6 16  1  0  0  0  0
  7 17  1  0  0  0  0
  7 18  1  0  0  0  0
  8 19  1  0  0  0  0
  8 20  1  0  0  0  0
 10 21  1  0  0  0  0
M  END
> <FRED Chemgauss4 score>
-5.898088

$$$$
C03830889	P56794640
  -OEChem-05122015083D

 25 25  0     1  0  0  0  0  0999 V2000
   53.1819  155.2589   -4.3873 C   0  0  1  0  0  0  0  0  0  0  0  0
   53.8110  155.5241   -5.7573 C   0  0  2  0  0  0  0  0  0  0  0  0
   53.7114  157.0043   -6.1416 C   0  0  1  0  0  0  0  0  0  0  0  0
   54.2292  157.8940   -5.0006 C   0  0  1  0  0  0  0  0  0  0  0  0
   53.7736  156.2282   -3.3589 C   0  0  1  0  0  0  0  0  0  0  0  0
   53.9899  159.3752   -5.2754 C   0  0  0  0  0  0  0  0  0  0  0  0
   51.7179  155.4008   -4.4385 N   0  0  0  0  0  0  0  0  0  0  0  0
   53.5693  157.5826   -3.7682 O   0  0  0  0  0  0  0  0  0  0  0  0
   53.1859  154.7089   -6.7458 O   0  0  0  0  0  0  0  0  0  0  0  0
   54.4961  157.2069   -7.3155 O   0  0  0  0  0  0  0  0  0  0  0  0
   53.1841  155.9850   -2.0843 O   0  0  0  0  0  0  0  0  0  0  0  0
   52.5982  159.5860   -5.4299 O   0  0  0  0  0  0  0  0  0  0  0  0
   53.3778  154.2231   -4.0860 H   0  0  0  0  0  0  0  0  0  0  0  0
   54.8663  155.2226   -5.7329 H   0  0  0  0  0  0  0  0  0  0  0  0
   52.6731  157.2484   -6.3966 H   0  0  0  0  0  0  0  0  0  0  0  0
   55.3101  157.7524   -4.8693 H   0  0  0  0  0  0  0  0  0  0  0  0
   54.8512  156.0460   -3.2565 H   0  0  0  0  0  0  0  0  0  0  0  0
   54.5028  159.6716   -6.1904 H   0  0  0  0  0  0  0  0  0  0  0  0
   54.3541  159.9727   -4.4396 H   0  0  0  0  0  0  0  0  0  0  0  0
   51.2464  155.5897   -3.5869 H   0  0  0  0  0  0  0  0  0  0  0  0
   51.2581  155.1036   -5.2654 H   0  0  0  0  0  0  0  0  0  0  0  0
   53.3289  153.7888   -6.4752 H   0  0  0  0  0  0  0  0  0  0  0  0
   55.4043  156.9574   -7.0856 H   0  0  0  0  0  0  0  0  0  0  0  0
   53.5861  156.6174   -1.4688 H   0  0  0  0  0  0  0  0  0  0  0  0
   52.4707  160.5342   -5.6037 H   0  0  0  0  0  0  0  0  0  0  0  0
  1  2  1  0  0  0  0
  1  5  1  0  0  0  0
  1  7  1  0  0  0  0
  2  3  1  0  0  0  0
  2  9  1  0  0  0  0
  3  4  1  0  0  0  0
  3 10  1  0  0  0  0
  4  6  1  0  0  0  0
  4  8  1  0  0  0  0
  5  8  1  0  0  0  0
  5 11  1  0  0  0  0
  6 12  1  0  0  0  0
  1 13  1  0  0  0  0
  2 14  1  0  0  0  0
  3 15  1  0  0  0  0
  4 16  1  0  0  0  0
  5 17  1  0  0  0  0
  6 18  1  0  0  0  0
  6 19  1  0  0  0  0
  7 20  1  0  0  0  0
  7 21  1  0  0  0  0
  9 22  1  0  0  0  0
 10 23  1  0  0  0  0
 11 24  1  0  0  0  0
 12 25  1  0  0  0  0
M  END
> <FRED Chemgauss4 score>
-5.893268

$$$$
C37207947	P55328418
  -OEChem-05122015083D

 28 27  0     0  0  0  0  0  0999 V2000
   56.8312  158.7421   -4.5235 C   0  0  0  0  0  0  0  0  0  0  0  0
   59.8949  161.8452   -4.4823 C   0  0  0  0  0  0  0  0  0  0  0  0
   54.3757  158.5052   -4.2445 C   0  0  0  0  0  0  0  0  0  0  0  0
   61.9928  163.0823   -5.0745 C   0  0  0  0  0  0  0  0  0  0  0  0
   60.5769  162.1626   -6.8701 C   0  0  0  0  0  0  0  0  0  0  0  0
   57.8345  158.9443   -5.6408 C   0  0  0  0  0  0  0  0  0  0  0  0
   58.6878  161.1020   -5.0267 C   0  0  0  0  0  0  0  0  0  0  0  0
   53.2334  158.4660   -5.0254 N   0  0  0  0  0  0  0  0  0  0  0  0
   55.5275  158.6661   -5.0210 N   0  0  0  0  0  0  0  0  0  0  0  0
   58.9791  159.7006   -5.1282 N   0  0  0  0  0  0  0  0  0  0  0  0
   60.7863  162.3436   -5.4390 N   0  0  0  0  0  0  0  0  0  0  0  0
   57.1384  158.6774   -3.3360 O   0  0  0  0  0  0  0  0  0  0  0  0
   60.0535  161.9873   -3.2669 O   0  0  0  0  0  0  0  0  0  0  0  0
   54.3518  158.4085   -3.0191 O   0  0  0  0  0  0  0  0  0  0  0  0
   62.8313  162.3927   -4.9468 H   0  0  0  0  0  0  0  0  0  0  0  0
   61.8361  163.6232   -4.1373 H   0  0  0  0  0  0  0  0  0  0  0  0
   62.2457  163.8028   -5.8569 H   0  0  0  0  0  0  0  0  0  0  0  0
   59.9947  162.9955   -7.2729 H   0  0  0  0  0  0  0  0  0  0  0  0
   60.0356  161.2314   -7.0581 H   0  0  0  0  0  0  0  0  0  0  0  0
   61.5376  162.1207   -7.3903 H   0  0  0  0  0  0  0  0  0  0  0  0
   58.1749  157.9716   -6.0100 H   0  0  0  0  0  0  0  0  0  0  0  0
   57.3522  159.4869   -6.4598 H   0  0  0  0  0  0  0  0  0  0  0  0
   57.8360  161.2145   -4.3511 H   0  0  0  0  0  0  0  0  0  0  0  0
   58.4400  161.4603   -6.0292 H   0  0  0  0  0  0  0  0  0  0  0  0
   53.3205  158.5518   -6.0325 H   0  0  0  0  0  0  0  0  0  0  0  0
   52.3116  158.3537   -4.6173 H   0  0  0  0  0  0  0  0  0  0  0  0
   55.4068  158.7333   -6.0282 H   0  0  0  0  0  0  0  0  0  0  0  0
   59.7744  159.5457   -5.7592 H   0  0  0  0  0  0  0  0  0  0  0  0
  1  6  1  0  0  0  0
  1  9  1  0  0  0  0
  1 12  2  0  0  0  0
  2  7  1  0  0  0  0
  2 11  1  0  0  0  0
  2 13  2  0  0  0  0
  3  8  1  0  0  0  0
  3  9  1  0  0  0  0
  3 14  2  0  0  0  0
  4 11  1  0  0  0  0
  5 11  1  0  0  0  0
  6 10  1  0  0  0  0
  7 10  1  0  0  0  0
  4 15  1  0  0  0  0
  4 16  1  0  0  0  0
  4 17  1  0  0  0  0
  5 18  1  0  0  0  0
  5 19  1  0  0  0  0
  5 20  1  0  0  0  0
  6 21  1  0  0  0  0
  6 22  1  0  0  0  0
  7 23  1  0  0  0  0
  7 24  1  0  0  0  0
  8 25  1  0  0  0  0
  8 26  1  0  0  0  0
  9 27  1  0  0  0  0
 10 28  1  0  0  0  0
M  END
> <FRED Chemgauss4 score>
-5.885710

$$$$
C59696613	P90963035
  -OEChem-05122015083D

 17 17  0     0  0  0  0  0  0999 V2000
   55.0043  155.4824   -6.2388 C   0  0  0  0  0  0  0  0  0  0  0  0
   54.6290  156.7019   -5.8578 C   0  0  0  0  0  0  0  0  0  0  0  0
   54.8644  154.4029   -5.2270 C   0  0  0  0  0  0  0  0  0  0  0  0
   54.0132  155.9171   -3.6532 C   0  0  0  0  0  0  0  0  0  0  0  0
   53.7536  158.3213   -4.2739 C   0  0  0  0  0  0  0  0  0  0  0  0
   54.3980  154.6415   -4.0293 N   0  0  0  0  0  0  0  0  0  0  0  0
   54.1381  156.9517   -4.5971 N   0  0  0  0  0  0  0  0  0  0  0  0
   55.2410  153.1280   -5.5807 N   0  0  0  0  0  0  0  0  0  0  0  0
   53.5761  156.1237   -2.5196 O   0  0  0  0  0  0  0  0  0  0  0  0
   52.5273  158.6192   -4.9130 O   0  0  0  0  0  0  0  0  0  0  0  0
   55.3925  155.2643   -7.2245 H   0  0  0  0  0  0  0  0  0  0  0  0
   54.6980  157.5472   -6.5335 H   0  0  0  0  0  0  0  0  0  0  0  0
   54.5337  158.9977   -4.6316 H   0  0  0  0  0  0  0  0  0  0  0  0
   53.6387  158.4041   -3.1904 H   0  0  0  0  0  0  0  0  0  0  0  0
   55.5904  152.9828   -6.4970 H   0  0  0  0  0  0  0  0  0  0  0  0
   55.1467  152.4096   -4.9040 H   0  0  0  0  0  0  0  0  0  0  0  0
   51.8696  157.9864   -4.5774 H   0  0  0  0  0  0  0  0  0  0  0  0
  1  2  2  0  0  0  0
  1  3  1  0  0  0  0
  2  7  1  0  0  0  0
  3  6  2  0  0  0  0
  3  8  1  0  0  0  0
  4  6  1  0  0  0  0
  4  7  1  0  0  0  0
  4  9  2  0  0  0  0
  5  7  1  0  0  0  0
  5 10  1  0  0  0  0
  1 11  1  0  0  0  0
  2 12  1  0  0  0  0
  5 13  1  0  0  0  0
  5 14  1  0  0  0  0
  8 15  1  0  0  0  0
  8 16  1  0  0  0  0
 10 17  1  0  0  0  0
M  END
> <FRED Chemgauss4 score>
-5.875042

$$$$
C85275828	P133443055
  -OEChem-05122015083D

 23 23  0     1  0  0  0  0  0999 V2000
   55.3990  155.4528   -6.1166 C   0  0  0  0  0  0  0  0  0  0  0  0
   56.6651  155.0975   -6.5352 C   0  0  0  0  0  0  0  0  0  0  0  0
   57.5108  157.0865   -5.8308 C   0  0  0  0  0  0  0  0  0  0  0  0
   55.2891  156.7023   -5.5414 C   0  0  0  0  0  0  0  0  0  0  0  0
   53.6223  155.2157   -3.4052 C   0  0  0  0  0  0  0  0  0  0  0  0
   53.9410  157.1805   -5.0516 C   0  0  2  0  0  0  0  0  0  0  0  0
   53.6037  156.7348   -3.6126 C   0  0  2  0  0  0  0  0  0  0  0  0
   57.7475  155.8927   -6.4073 N   0  0  0  0  0  0  0  0  0  0  0  0
   56.3280  157.5482   -5.3820 N   0  0  0  0  0  0  0  0  0  0  0  0
   54.5246  157.3587   -2.6814 N   0  0  0  0  0  0  0  0  0  0  0  0
   52.8918  154.8363   -2.2458 O   0  0  0  0  0  0  0  0  0  0  0  0
   52.9586  156.6598   -5.9532 O   0  0  0  0  0  0  0  0  0  0  0  0
   54.5536  154.7874   -6.2358 H   0  0  0  0  0  0  0  0  0  0  0  0
   56.8501  154.1346   -6.9992 H   0  0  0  0  0  0  0  0  0  0  0  0
   58.3629  157.7450   -5.7156 H   0  0  0  0  0  0  0  0  0  0  0  0
   54.6479  154.8546   -3.2807 H   0  0  0  0  0  0  0  0  0  0  0  0
   53.1932  154.6922   -4.2669 H   0  0  0  0  0  0  0  0  0  0  0  0
   53.8814  158.2733   -5.1302 H   0  0  0  0  0  0  0  0  0  0  0  0
   52.6164  157.1143   -3.3223 H   0  0  0  0  0  0  0  0  0  0  0  0
   54.6521  156.9396   -1.7808 H   0  0  0  0  0  0  0  0  0  0  0  0
   54.8476  158.2864   -2.8769 H   0  0  0  0  0  0  0  0  0  0  0  0
   52.9495  153.8694   -2.1830 H   0  0  0  0  0  0  0  0  0  0  0  0
   53.1775  157.0161   -6.8262 H   0  0  0  0  0  0  0  0  0  0  0  0
  1  2  1  0  0  0  0
  1  4  2  0  0  0  0
  2  8  2  0  0  0  0
  3  8  1  0  0  0  0
  3  9  2  0  0  0  0
  4  6  1  0  0  0  0
  4  9  1  0  0  0  0
  5  7  1  0  0  0  0
  5 11  1  0  0  0  0
  6  7  1  0  0  0  0
  6 12  1  0  0  0  0
  7 10  1  0  0  0  0
  1 13  1  0  0  0  0
  2 14  1  0  0  0  0
  3 15  1  0  0  0  0
  5 16  1  0  0  0  0
  5 17  1  0  0  0  0
  6 18  1  0  0  0  0
  7 19  1  0  0  0  0
 10 20  1  0  0  0  0
 10 21  1  0  0  0  0
 11 22  1  0  0  0  0
 12 23  1  0  0  0  0
M  END
> <FRED Chemgauss4 score>
-5.874393

$$$$
C80745907	P126057400
  -OEChem-05122015083D

 49 50  0     1  0  0  0  0  0999 V2000
   53.5393  155.9636   -4.3725 C   0  0  0  0  0  0  0  0  0  0  0  0
   54.6907  158.0322   -5.0169 C   0  0  0  0  0  0  0  0  0  0  0  0
   55.9602  155.8622   -4.7755 C   0  0  0  0  0  0  0  0  0  0  0  0
   56.0095  158.8010   -5.0644 C   0  0  0  0  0  0  0  0  0  0  0  0
   57.2814  156.6269   -4.8242 C   0  0  0  0  0  0  0  0  0  0  0  0
   61.1213  162.8507   -6.6931 C   0  0  0  0  0  0  0  0  0  0  0  0
   59.8792  161.2092   -5.4444 C   0  0  0  0  0  0  0  0  0  0  0  0
   60.9816  161.9737   -7.9334 C   0  0  0  0  0  0  0  0  0  0  0  0
   54.8368  156.7356   -4.2282 C   0  0  0  0  0  0  0  0  0  0  0  0
   57.1477  157.9339   -5.6105 C   0  0  0  0  0  0  0  0  0  0  0  0
   59.7698  160.3597   -6.7162 C   0  0  1  0  0  0  0  0  0  0  0  0
   60.3838  164.0840   -4.4436 C   0  0  0  0  0  0  0  0  0  0  0  0
   62.7032  163.1744   -4.0708 C   0  0  0  0  0  0  0  0  0  0  0  0
   58.4715  159.5645   -6.7343 C   0  0  0  0  0  0  0  0  0  0  0  0
   61.2357  162.8331   -4.2839 C   0  0  0  0  0  0  0  0  0  0  0  0
   61.1106  162.0121   -5.4866 N   0  0  2  0  0  0  0  0  0  0  0  0
   53.2384  155.6222   -5.6698 N   0  0  0  0  0  0  0  0  0  0  0  0
   58.3941  158.6607   -5.5984 N   0  0  0  0  0  0  0  0  0  0  0  0
   52.8452  155.6665   -3.4032 O   0  0  0  0  0  0  0  0  0  0  0  0
   59.7775  161.2090   -7.8692 O   0  0  0  0  0  0  0  0  0  0  0  0
   53.9348  158.6510   -4.5392 H   0  0  0  0  0  0  0  0  0  0  0  0
   54.3582  157.8289   -6.0313 H   0  0  0  0  0  0  0  0  0  0  0  0
   55.7161  155.5061   -5.7728 H   0  0  0  0  0  0  0  0  0  0  0  0
   56.0752  154.9927   -4.1325 H   0  0  0  0  0  0  0  0  0  0  0  0
   55.8921  159.6765   -5.7082 H   0  0  0  0  0  0  0  0  0  0  0  0
   56.2543  159.1736   -4.0671 H   0  0  0  0  0  0  0  0  0  0  0  0
   57.6282  156.8252   -3.8072 H   0  0  0  0  0  0  0  0  0  0  0  0
   58.0440  156.0045   -5.2990 H   0  0  0  0  0  0  0  0  0  0  0  0
   62.0610  163.4111   -6.7580 H   0  0  0  0  0  0  0  0  0  0  0  0
   60.2955  163.5734   -6.6619 H   0  0  0  0  0  0  0  0  0  0  0  0
   59.0040  161.8670   -5.3569 H   0  0  0  0  0  0  0  0  0  0  0  0
   59.8935  160.5484   -4.5693 H   0  0  0  0  0  0  0  0  0  0  0  0
   60.9294  162.6010   -8.8290 H   0  0  0  0  0  0  0  0  0  0  0  0
   61.8384  161.2990   -8.0512 H   0  0  0  0  0  0  0  0  0  0  0  0
   54.9700  156.9270   -3.2014 H   0  0  0  0  0  0  0  0  0  0  0  0
   56.9143  157.6805   -6.6597 H   0  0  0  0  0  0  0  0  0  0  0  0
   60.6015  159.6506   -6.7863 H   0  0  0  0  0  0  0  0  0  0  0  0
   60.7313  164.6872   -5.2887 H   0  0  0  0  0  0  0  0  0  0  0  0
   59.3311  163.8320   -4.6141 H   0  0  0  0  0  0  0  0  0  0  0  0
   60.4316  164.7043   -3.5419 H   0  0  0  0  0  0  0  0  0  0  0  0
   63.0909  163.7625   -4.9099 H   0  0  0  0  0  0  0  0  0  0  0  0
   63.3069  162.2648   -3.9868 H   0  0  0  0  0  0  0  0  0  0  0  0
   62.8486  163.7658   -3.1598 H   0  0  0  0  0  0  0  0  0  0  0  0
   58.4033  158.9622   -7.6453 H   0  0  0  0  0  0  0  0  0  0  0  0
   57.6065  160.2326   -6.6880 H   0  0  0  0  0  0  0  0  0  0  0  0
   60.8705  162.2462   -3.4341 H   0  0  0  0  0  0  0  0  0  0  0  0
   53.8783  155.8990   -6.4071 H   0  0  0  0  0  0  0  0  0  0  0  0
   52.4021  155.1044   -5.9197 H   0  0  0  0  0  0  0  0  0  0  0  0
   59.1616  157.9948   -5.6394 H   0  0  0  0  0  0  0  0  0  0  0  0
  1  9  1  0  0  0  0
  1 17  1  0  0  0  0
  1 19  2  0  0  0  0
  2  4  1  0  0  0  0
  2  9  1  0  0  0  0
  3  5  1  0  0  0  0
  3  9  1  0  0  0  0
  4 10  1  0  0  0  0
  5 10  1  0  0  0  0
  6  8  1  0  0  0  0
  6 16  1  0  0  0  0
  7 11  1  0  0  0  0
  7 16  1  0  0  0  0
  8 20  1  0  0  0  0
 10 18  1  0  0  0  0
 11 14  1  0  0  0  0
 11 20  1  0  0  0  0
 12 15  1  0  0  0  0
 13 15  1  0  0  0  0
 14 18  1  0  0  0  0
 15 16  1  0  0  0  0
  2 21  1  0  0  0  0
  2 22  1  0  0  0  0
  3 23  1  0  0  0  0
  3 24  1  0  0  0  0
  4 25  1  0  0  0  0
  4 26  1  0  0  0  0
  5 27  1  0  0  0  0
  5 28  1  0  0  0  0
  6 29  1  0  0  0  0
  6 30  1  0  0  0  0
  7 31  1  0  0  0  0
  7 32  1  0  0  0  0
  8 33  1  0  0  0  0
  8 34  1  0  0  0  0
  9 35  1  0  0  0  0
 10 36  1  0  0  0  0
 11 37  1  0  0  0  0
 12 38  1  0  0  0  0
 12 39  1  0  0  0  0
 12 40  1  0  0  0  0
 13 41  1  0  0  0  0
 13 42  1  0  0  0  0
 13 43  1  0  0  0  0
 14 44  1  0  0  0  0
 14 45  1  0  0  0  0
 15 46  1  0  0  0  0
 17 47  1  0  0  0  0
 17 48  1  0  0  0  0
 18 49  1  0  0  0  0
M  END
> <FRED Chemgauss4 score>
-5.873174

$$$$
C69691212	P107337996
  -OEChem-05122015083D

 30 30  0     1  0  0  0  0  0999 V2000
   55.6269  160.6389   -2.8874 C   0  0  0  0  0  0  0  0  0  0  0  0
   54.9817  158.6597   -2.6008 C   0  0  0  0  0  0  0  0  0  0  0  0
   55.5955  163.0235   -3.6166 C   0  0  0  0  0  0  0  0  0  0  0  0
   55.3765  156.7769   -4.2413 C   0  0  0  0  0  0  0  0  0  0  0  0
   58.8732  161.0033   -3.1117 C   0  0  0  0  0  0  0  0  0  0  0  0
   57.5864  161.9439   -1.1957 C   0  0  0  0  0  0  0  0  0  0  0  0
   56.4607  161.7599   -3.4952 C   0  0  1  0  0  0  0  0  0  0  0  0
   54.9597  157.2076   -2.8171 C   0  0  2  0  0  0  0  0  0  0  0  0
   57.7858  162.0130   -2.7149 C   0  0  0  0  0  0  0  0  0  0  0  0
   54.6782  160.6976   -1.9823 N   0  0  0  0  0  0  0  0  0  0  0  0
   54.2538  159.3954   -1.7937 N   0  0  0  0  0  0  0  0  0  0  0  0
   53.6649  156.6046   -2.5050 N   0  0  0  0  0  0  0  0  0  0  0  0
   55.8790  159.3770   -3.3309 O   0  0  0  0  0  0  0  0  0  0  0  0
   55.2815  163.3826   -2.6294 H   0  0  0  0  0  0  0  0  0  0  0  0
   56.1502  163.8392   -4.0909 H   0  0  0  0  0  0  0  0  0  0  0  0
   54.6919  162.8407   -4.2085 H   0  0  0  0  0  0  0  0  0  0  0  0
   54.7290  157.2528   -4.9858 H   0  0  0  0  0  0  0  0  0  0  0  0
   56.4129  157.0518   -4.4677 H   0  0  0  0  0  0  0  0  0  0  0  0
   55.2966  155.6914   -4.3686 H   0  0  0  0  0  0  0  0  0  0  0  0
   58.5547  159.9765   -2.9019 H   0  0  0  0  0  0  0  0  0  0  0  0
   59.1198  161.0736   -4.1755 H   0  0  0  0  0  0  0  0  0  0  0  0
   59.7981  161.1896   -2.5550 H   0  0  0  0  0  0  0  0  0  0  0  0
   57.2082  160.9627   -0.8896 H   0  0  0  0  0  0  0  0  0  0  0  0
   58.5311  162.1208   -0.6697 H   0  0  0  0  0  0  0  0  0  0  0  0
   56.8833  162.7079   -0.8506 H   0  0  0  0  0  0  0  0  0  0  0  0
   56.7307  161.4680   -4.5200 H   0  0  0  0  0  0  0  0  0  0  0  0
   55.6601  156.6852   -2.1284 H   0  0  0  0  0  0  0  0  0  0  0  0
   58.1635  163.0167   -2.9486 H   0  0  0  0  0  0  0  0  0  0  0  0
   53.1565  156.9653   -1.7280 H   0  0  0  0  0  0  0  0  0  0  0  0
   53.4352  155.7390   -2.9414 H   0  0  0  0  0  0  0  0  0  0  0  0
  1  7  1  0  0  0  0
  1 10  2  0  0  0  0
  1 13  1  0  0  0  0
  2  8  1  0  0  0  0
  2 11  2  0  0  0  0
  2 13  1  0  0  0  0
  3  7  1  0  0  0  0
  4  8  1  0  0  0  0
  5  9  1  0  0  0  0
  6  9  1  0  0  0  0
  7  9  1  0  0  0  0
  8 12  1  0  0  0  0
 10 11  1  0  0  0  0
  3 14  1  0  0  0  0
  3 15  1  0  0  0  0
  3 16  1  0  0  0  0
  4 17  1  0  0  0  0
  4 18  1  0  0  0  0
  4 19  1  0  0  0  0
  5 20  1  0  0  0  0
  5 21  1  0  0  0  0
  5 22  1  0  0  0  0
  6 23  1  0  0  0  0
  6 24  1  0  0  0  0
  6 25  1  0  0  0  0
  7 26  1  0  0  0  0
  8 27  1  0  0  0  0
  9 28  1  0  0  0  0
 12 29  1  0  0  0  0
 12 30  1  0  0  0  0
M  END
> <FRED Chemgauss4 score>
-5.871789

$$$$
C91502398	P143190438
  -OEChem-05122015083D

 39 40  0     1  0  0  0  0  0999 V2000
   57.4553  156.7490   -4.5250 C   0  0  0  0  0  0  0  0  0  0  0  0
   58.7698  156.7144   -5.0044 C   0  0  0  0  0  0  0  0  0  0  0  0
   58.1927  154.9915   -6.6177 C   0  0  0  0  0  0  0  0  0  0  0  0
   54.6895  154.6958   -5.7477 C   0  0  0  0  0  0  0  0  0  0  0  0
   56.4923  155.8943   -5.0972 C   0  0  0  0  0  0  0  0  0  0  0  0
   56.8824  155.0370   -6.1283 C   0  0  0  0  0  0  0  0  0  0  0  0
   59.1306  155.8484   -6.0348 C   0  0  0  0  0  0  0  0  0  0  0  0
   55.1063  155.6678   -4.8677 C   0  0  0  0  0  0  0  0  0  0  0  0
   52.4905  159.0727   -6.3329 C   0  0  0  0  0  0  0  0  0  0  0  0
   54.4025  159.4859   -4.7578 C   0  0  0  0  0  0  0  0  0  0  0  0
   50.8941  158.9352   -8.2070 C   0  0  0  0  0  0  0  0  0  0  0  0
   52.6129  157.1833   -8.0365 C   0  0  0  0  0  0  0  0  0  0  0  0
   53.6447  158.4373   -5.5588 C   0  0  1  0  0  0  0  0  0  0  0  0
   55.7679  154.3214   -6.5037 N   0  0  0  0  0  0  0  0  0  0  0  0
   60.4650  155.8353   -6.4996 N   0  0  0  0  0  0  0  0  0  0  0  0
   53.0813  157.4395   -4.6815 N   0  0  0  0  0  0  0  0  0  0  0  0
   52.0267  158.3935   -7.4648 N   0  0  0  0  0  0  0  0  0  0  0  0
   51.9810  160.1228   -5.9259 O   0  0  0  0  0  0  0  0  0  0  0  0
   53.2703  155.4714   -3.0236 O   0  0  0  0  0  0  0  0  0  0  0  0
   54.9565  157.3320   -2.8850 O   0  0  0  0  0  0  0  0  0  0  0  0
   54.0873  156.4790   -3.6726 S   0  0  0  0  0  0  0  0  0  0  0  0
   57.1906  157.4302   -3.7212 H   0  0  0  0  0  0  0  0  0  0  0  0
   59.5090  157.3765   -4.5590 H   0  0  0  0  0  0  0  0  0  0  0  0
   58.4653  154.3139   -7.4209 H   0  0  0  0  0  0  0  0  0  0  0  0
   53.7239  154.2357   -5.9051 H   0  0  0  0  0  0  0  0  0  0  0  0
   53.7408  160.0389   -4.0844 H   0  0  0  0  0  0  0  0  0  0  0  0
   55.1907  159.0203   -4.1563 H   0  0  0  0  0  0  0  0  0  0  0  0
   54.8809  160.2186   -5.4185 H   0  0  0  0  0  0  0  0  0  0  0  0
   51.2466  159.6154   -8.9867 H   0  0  0  0  0  0  0  0  0  0  0  0
   50.2296  159.4846   -7.5347 H   0  0  0  0  0  0  0  0  0  0  0  0
   50.3275  158.1260   -8.6757 H   0  0  0  0  0  0  0  0  0  0  0  0
   52.1558  156.2969   -7.5892 H   0  0  0  0  0  0  0  0  0  0  0  0
   53.6893  157.1584   -7.8460 H   0  0  0  0  0  0  0  0  0  0  0  0
   52.4476  157.1574   -9.1170 H   0  0  0  0  0  0  0  0  0  0  0  0
   54.3110  157.8890   -6.2288 H   0  0  0  0  0  0  0  0  0  0  0  0
   55.7491  153.6215   -7.2325 H   0  0  0  0  0  0  0  0  0  0  0  0
   61.1198  156.4826   -6.1129 H   0  0  0  0  0  0  0  0  0  0  0  0
   60.7045  155.2461   -7.2695 H   0  0  0  0  0  0  0  0  0  0  0  0
   52.0992  157.5771   -4.3702 H   0  0  0  0  0  0  0  0  0  0  0  0
  1  2  1  0  0  0  0
  1  5  2  0  0  0  0
  2  7  2  0  0  0  0
  3  6  2  0  0  0  0
  3  7  1  0  0  0  0
  4  8  2  0  0  0  0
  4 14  1  0  0  0  0
  5  6  1  0  0  0  0
  5  8  1  0  0  0  0
  6 14  1  0  0  0  0
  7 15  1  0  0  0  0
  8 21  1  0  0  0  0
  9 13  1  0  0  0  0
  9 17  1  0  0  0  0
  9 18  2  0  0  0  0
 10 13  1  0  0  0  0
 11 17  1  0  0  0  0
 12 17  1  0  0  0  0
 13 16  1  0  0  0  0
 16 21  1  0  0  0  0
 19 21  2  0  0  0  0
 20 21  2  0  0  0  0
  1 22  1  0  0  0  0
  2 23  1  0  0  0  0
  3 24  1  0  0  0  0
  4 25  1  0  0  0  0
 10 26  1  0  0  0  0
 10 27  1  0  0  0  0
 10 28  1  0  0  0  0
 11 29  1  0  0  0  0
 11 30  1  0  0  0  0
 11 31  1  0  0  0  0
 12 32  1  0  0  0  0
 12 33  1  0  0  0  0
 12 34  1  0  0  0  0
 13 35  1  0  0  0  0
 14 36  1  0  0  0  0
 15 37  1  0  0  0  0
 15 38  1  0  0  0  0
 16 39  1  0  0  0  0
M  END
> <FRED Chemgauss4 score>
-5.865869

$$$$
C62780094	P96346646
  -OEChem-05122015083D

 25 26  0     1  0  0  0  0  0999 V2000
   54.5543  158.9572   -4.5256 C   0  0  0  0  0  0  0  0  0  0  0  0
   53.9252  157.0151   -5.3425 C   0  0  0  0  0  0  0  0  0  0  0  0
   55.0402  157.7944   -5.1530 C   0  0  0  0  0  0  0  0  0  0  0  0
   56.4225  157.4473   -5.5383 C   0  0  0  0  0  0  0  0  0  0  0  0
   58.4592  157.5779   -6.0390 C   0  0  0  0  0  0  0  0  0  0  0  0
   59.2576  160.1801   -4.7043 C   0  0  0  0  0  0  0  0  0  0  0  0
   59.6736  159.7928   -6.1181 C   0  0  0  0  0  0  0  0  0  0  0  0
   59.7809  158.2697   -6.3051 C   0  0  2  0  0  0  0  0  0  0  0  0
   53.2334  158.9239   -4.3298 N   0  0  0  0  0  0  0  0  0  0  0  0
   56.8170  156.2159   -5.7633 N   0  0  0  0  0  0  0  0  0  0  0  0
   58.1569  156.3018   -6.0926 N   0  0  0  0  0  0  0  0  0  0  0  0
   52.8799  157.7307   -4.8372 N   0  0  0  0  0  0  0  0  0  0  0  0
   60.2762  157.9360   -7.6219 N   0  0  0  0  0  0  0  0  0  0  0  0
   57.4092  158.3720   -5.6930 O   0  0  0  0  0  0  0  0  0  0  0  0
   55.1042  159.8296   -4.2015 H   0  0  0  0  0  0  0  0  0  0  0  0
   53.7799  156.0376   -5.7809 H   0  0  0  0  0  0  0  0  0  0  0  0
   59.9536  159.7713   -3.9648 H   0  0  0  0  0  0  0  0  0  0  0  0
   59.2534  161.2696   -4.5987 H   0  0  0  0  0  0  0  0  0  0  0  0
   58.2522  159.8168   -4.4701 H   0  0  0  0  0  0  0  0  0  0  0  0
   58.9521  160.2212   -6.8251 H   0  0  0  0  0  0  0  0  0  0  0  0
   60.6432  160.2603   -6.3324 H   0  0  0  0  0  0  0  0  0  0  0  0
   60.5326  157.8854   -5.6044 H   0  0  0  0  0  0  0  0  0  0  0  0
   51.9032  157.4664   -4.8058 H   0  0  0  0  0  0  0  0  0  0  0  0
   60.1019  157.0167   -7.9854 H   0  0  0  0  0  0  0  0  0  0  0  0
   60.9473  158.5445   -8.0544 H   0  0  0  0  0  0  0  0  0  0  0  0
  1  3  1  0  0  0  0
  1  9  2  0  0  0  0
  2  3  2  0  0  0  0
  2 12  1  0  0  0  0
  3  4  1  0  0  0  0
  4 10  2  0  0  0  0
  4 14  1  0  0  0  0
  5  8  1  0  0  0  0
  5 11  2  0  0  0  0
  5 14  1  0  0  0  0
  6  7  1  0  0  0  0
  7  8  1  0  0  0  0
  8 13  1  0  0  0  0
  9 12  1  0  0  0  0
 10 11  1  0  0  0  0
  1 15  1  0  0  0  0
  2 16  1  0  0  0  0
  6 17  1  0  0  0  0
  6 18  1  0  0  0  0
  6 19  1  0  0  0  0
  7 20  1  0  0  0  0
  7 21  1  0  0  0  0
  8 22  1  0  0  0  0
 12 23  1  0  0  0  0
 13 24  1  0  0  0  0
 13 25  1  0  0  0  0
M  END
> <FRED Chemgauss4 score>
-5.863668

$$$$
C51924279	P77771538
  -OEChem-05122015083D

 25 26  0     0  0  0  0  0  0999 V2000
   57.3413  154.5440   -6.8560 C   0  0  0  0  0  0  0  0  0  0  0  0
   56.9683  153.3840   -7.4931 C   0  0  0  0  0  0  0  0  0  0  0  0
   54.1520  156.9969   -4.2684 C   0  0  0  0  0  0  0  0  0  0  0  0
   55.3103  154.2215   -6.3072 C   0  0  0  0  0  0  0  0  0  0  0  0
   54.8296  152.0905   -7.5542 C   0  0  0  0  0  0  0  0  0  0  0  0
   53.9613  156.8321   -5.7474 C   0  0  0  0  0  0  0  0  0  0  0  0
   53.9368  154.3347   -5.7142 C   0  0  0  0  0  0  0  0  0  0  0  0
   53.2893  156.5098   -3.3562 N   0  5  0  0  0  0  0  0  0  0  0  0
   56.3049  155.0602   -6.1192 N   0  0  0  0  0  0  0  0  0  0  0  0
   55.2017  157.6455   -3.7293 N   0  0  0  0  0  0  0  0  0  0  0  0
   53.8336  156.8770   -2.1691 N   0  0  0  0  0  0  0  0  0  0  0  0
   54.9825  157.5593   -2.3931 N   0  0  0  0  0  0  0  0  0  0  0  0
   55.6649  153.1900   -7.1317 N   0  0  0  0  0  0  0  0  0  0  0  0
   53.2344  155.5855   -6.1059 N   0  3  0  0  0  0  0  0  0  0  0  0
   58.3036  155.0337   -6.8904 H   0  0  0  0  0  0  0  0  0  0  0  0
   57.4984  152.7061   -8.1473 H   0  0  0  0  0  0  0  0  0  0  0  0
   54.9453  151.2809   -6.8289 H   0  0  0  0  0  0  0  0  0  0  0  0
   53.7877  152.4201   -7.5964 H   0  0  0  0  0  0  0  0  0  0  0  0
   55.1416  151.7613   -8.5493 H   0  0  0  0  0  0  0  0  0  0  0  0
   53.3855  157.6638   -6.1674 H   0  0  0  0  0  0  0  0  0  0  0  0
   54.9240  156.7959   -6.2687 H   0  0  0  0  0  0  0  0  0  0  0  0
   53.2986  153.5031   -6.0317 H   0  0  0  0  0  0  0  0  0  0  0  0
   53.9766  154.3259   -4.6196 H   0  0  0  0  0  0  0  0  0  0  0  0
   52.3032  155.6004   -5.6677 H   0  0  0  0  0  0  0  0  0  0  0  0
   53.0658  155.5738   -7.1212 H   0  0  0  0  0  0  0  0  0  0  0  0
  1  2  2  0  0  0  0
  1  9  1  0  0  0  0
  2 13  1  0  0  0  0
  3  6  1  0  0  0  0
  3  8  1  0  0  0  0
  3 10  2  0  0  0  0
  4  7  1  0  0  0  0
  4  9  2  0  0  0  0
  4 13  1  0  0  0  0
  5 13  1  0  0  0  0
  6 14  1  0  0  0  0
  7 14  1  0  0  0  0
  8 11  1  0  0  0  0
 10 12  1  0  0  0  0
 11 12  2  0  0  0  0
  1 15  1  0  0  0  0
  2 16  1  0  0  0  0
  5 17  1  0  0  0  0
  5 18  1  0  0  0  0
  5 19  1  0  0  0  0
  6 20  1  0  0  0  0
  6 21  1  0  0  0  0
  7 22  1  0  0  0  0
  7 23  1  0  0  0  0
 14 24  1  0  0  0  0
 14 25  1  0  0  0  0
M  CHG  2   8  -1  14   1
M  END
> <FRED Chemgauss4 score>
-5.859659

$$$$
C41050702	P62310475
  -OEChem-05122015083D

 19 19  0     1  0  0  0  0  0999 V2000
   54.4257  155.8691   -5.9582 C   0  0  0  0  0  0  0  0  0  0  0  0
   54.1049  157.4654   -4.6520 C   0  0  0  0  0  0  0  0  0  0  0  0
   56.1738  154.0423   -6.0682 C   0  0  0  0  0  0  0  0  0  0  0  0
   55.1512  154.8780   -6.8426 C   0  0  1  0  0  0  0  0  0  0  0  0
   55.0837  156.8518   -5.2755 N   0  0  0  0  0  0  0  0  0  0  0  0
   53.1013  155.8362   -5.7964 N   0  0  0  0  0  0  0  0  0  0  0  0
   52.9220  156.8672   -4.9567 N   0  0  0  0  0  0  0  0  0  0  0  0
   54.1158  158.5241   -3.8157 N   0  0  0  0  0  0  0  0  0  0  0  0
   54.2105  154.0225   -7.5339 N   0  0  0  0  0  0  0  0  0  0  0  0
   55.5001  153.2859   -5.0674 O   0  0  0  0  0  0  0  0  0  0  0  0
   56.6833  153.3345   -6.7313 H   0  0  0  0  0  0  0  0  0  0  0  0
   56.9271  154.6681   -5.5773 H   0  0  0  0  0  0  0  0  0  0  0  0
   55.6781  155.4177   -7.6397 H   0  0  0  0  0  0  0  0  0  0  0  0
   51.9862  157.0965   -4.6438 H   0  0  0  0  0  0  0  0  0  0  0  0
   54.9917  158.9794   -3.5177 H   0  0  0  0  0  0  0  0  0  0  0  0
   53.2590  158.8715   -3.3590 H   0  0  0  0  0  0  0  0  0  0  0  0
   54.5308  153.1398   -7.8868 H   0  0  0  0  0  0  0  0  0  0  0  0
   53.3302  154.4079   -7.8219 H   0  0  0  0  0  0  0  0  0  0  0  0
   56.1799  152.7734   -4.6023 H   0  0  0  0  0  0  0  0  0  0  0  0
  1  4  1  0  0  0  0
  1  5  1  0  0  0  0
  1  6  2  0  0  0  0
  2  5  2  0  0  0  0
  2  7  1  0  0  0  0
  2  8  1  0  0  0  0
  3  4  1  0  0  0  0
  3 10  1  0  0  0  0
  4  9  1  0  0  0  0
  6  7  1  0  0  0  0
  3 11  1  0  0  0  0
  3 12  1  0  0  0  0
  4 13  1  0  0  0  0
  7 14  1  0  0  0  0
  8 15  1  0  0  0  0
  8 16  1  0  0  0  0
  9 17  1  0  0  0  0
  9 18  1  0  0  0  0
 10 19  1  0  0  0  0
M  END
> <FRED Chemgauss4 score>
-5.858222

$$$$
C82987577	P129755020
  -OEChem-05122015083D

 27 27  0     1  0  0  0  0  0999 V2000
   58.0680  157.0233   -6.0821 C   0  0  0  0  0  0  0  0  0  0  0  0
   57.2266  154.9918   -6.0889 C   0  0  0  0  0  0  0  0  0  0  0  0
   58.3308  155.7024   -6.4918 C   0  0  0  0  0  0  0  0  0  0  0  0
   59.5191  155.1950   -7.1961 C   0  0  0  0  0  0  0  0  0  0  0  0
   53.7534  157.8108   -5.0740 C   0  0  0  0  0  0  0  0  0  0  0  0
   55.1079  155.8386   -3.3412 C   0  0  0  0  0  0  0  0  0  0  0  0
   55.0375  155.6027   -4.8653 C   0  0  1  0  0  0  0  0  0  0  0  0
   53.8859  156.3695   -5.5801 C   0  0  1  0  0  0  0  0  0  0  0  0
   56.8893  157.1473   -5.4662 N   0  0  0  0  0  0  0  0  0  0  0  0
   56.4016  155.8952   -5.4861 N   0  0  0  0  0  0  0  0  0  0  0  0
   52.5978  155.7037   -5.3535 N   0  0  0  0  0  0  0  0  0  0  0  0
   53.9051  155.4388   -2.6986 O   0  0  0  0  0  0  0  0  0  0  0  0
   58.6843  157.9025   -6.2062 H   0  0  0  0  0  0  0  0  0  0  0  0
   56.9637  153.9465   -6.1787 H   0  0  0  0  0  0  0  0  0  0  0  0
   60.2976  154.8667   -6.4856 H   0  0  0  0  0  0  0  0  0  0  0  0
   59.2830  154.3354   -7.8492 H   0  0  0  0  0  0  0  0  0  0  0  0
   59.9723  155.9578   -7.8550 H   0  0  0  0  0  0  0  0  0  0  0  0
   53.5769  157.8412   -3.9928 H   0  0  0  0  0  0  0  0  0  0  0  0
   54.6549  158.3941   -5.2863 H   0  0  0  0  0  0  0  0  0  0  0  0
   52.9192  158.3250   -5.5654 H   0  0  0  0  0  0  0  0  0  0  0  0
   55.2619  156.9022   -3.1292 H   0  0  0  0  0  0  0  0  0  0  0  0
   55.9423  155.2880   -2.8920 H   0  0  0  0  0  0  0  0  0  0  0  0
   54.8470  154.5271   -4.9963 H   0  0  0  0  0  0  0  0  0  0  0  0
   54.0603  156.4027   -6.6618 H   0  0  0  0  0  0  0  0  0  0  0  0
   52.5872  154.7103   -5.3417 H   0  0  0  0  0  0  0  0  0  0  0  0
   51.7742  156.2549   -5.4254 H   0  0  0  0  0  0  0  0  0  0  0  0
   54.0217  155.6150   -1.7509 H   0  0  0  0  0  0  0  0  0  0  0  0
  1  3  1  0  0  0  0
  1  9  2  0  0  0  0
  2  3  2  0  0  0  0
  2 10  1  0  0  0  0
  3  4  1  0  0  0  0
  5  8  1  0  0  0  0
  6  7  1  0  0  0  0
  6 12  1  0  0  0  0
  7  8  1  0  0  0  0
  7 10  1  0  0  0  0
  8 11  1  0  0  0  0
  9 10  1  0  0  0  0
  1 13  1  0  0  0  0
  2 14  1  0  0  0  0
  4 15  1  0  0  0  0
  4 16  1  0  0  0  0
  4 17  1  0  0  0  0
  5 18  1  0  0  0  0
  5 19  1  0  0  0  0
  5 20  1  0  0  0  0
  6 21  1  0  0  0  0
  6 22  1  0  0  0  0
  7 23  1  0  0  0  0
  8 24  1  0  0  0  0
 11 25  1  0  0  0  0
 11 26  1  0  0  0  0
 12 27  1  0  0  0  0
M  END
> <FRED Chemgauss4 score>
-5.855239

$$$$
C88067459	P137750760
  -OEChem-05122015083D

 29 29  0     1  0  0  0  0  0999 V2000
   57.0631  159.5700   -0.9863 C   0  0  0  0  0  0  0  0  0  0  0  0
   56.6833  160.5090   -3.1797 C   0  0  0  0  0  0  0  0  0  0  0  0
   58.2973  160.2169   -0.9231 C   0  0  0  0  0  0  0  0  0  0  0  0
   57.9175  161.1560   -3.1165 C   0  0  0  0  0  0  0  0  0  0  0  0
   56.2562  159.7160   -2.1147 C   0  0  0  0  0  0  0  0  0  0  0  0
   58.7244  161.0099   -1.9881 C   0  0  0  0  0  0  0  0  0  0  0  0
   56.0665  156.1866   -4.9093 C   0  0  0  0  0  0  0  0  0  0  0  0
   54.9276  159.0204   -2.1828 C   0  0  0  0  0  0  0  0  0  0  0  0
   54.0293  157.7230   -4.9731 C   0  0  0  0  0  0  0  0  0  0  0  0
   55.3805  157.4153   -4.3174 C   0  0  1  0  0  0  0  0  0  0  0  0
   53.1027  156.6026   -4.8487 N   0  0  0  0  0  0  0  0  0  0  0  0
   53.7548  156.6035   -2.3559 O   0  0  0  0  0  0  0  0  0  0  0  0
   59.9282  161.6421   -1.9256 O   0  0  0  0  0  0  0  0  0  0  0  0
   55.1237  157.1758   -2.5121 S   0  0  2  0  0  0  0  0  0  0  0  0
   56.7383  158.9541   -0.1521 H   0  0  0  0  0  0  0  0  0  0  0  0
   56.0612  160.6285   -4.0630 H   0  0  0  0  0  0  0  0  0  0  0  0
   58.9213  160.0994   -0.0411 H   0  0  0  0  0  0  0  0  0  0  0  0
   58.2444  161.7725   -3.9491 H   0  0  0  0  0  0  0  0  0  0  0  0
   55.4298  155.2979   -4.8366 H   0  0  0  0  0  0  0  0  0  0  0  0
   56.3133  156.3401   -5.9648 H   0  0  0  0  0  0  0  0  0  0  0  0
   57.0024  155.9665   -4.3839 H   0  0  0  0  0  0  0  0  0  0  0  0
   54.3819  159.1370   -1.2404 H   0  0  0  0  0  0  0  0  0  0  0  0
   54.3024  159.4449   -2.9755 H   0  0  0  0  0  0  0  0  0  0  0  0
   53.5752  158.6106   -4.5172 H   0  0  0  0  0  0  0  0  0  0  0  0
   54.1679  157.9458   -6.0377 H   0  0  0  0  0  0  0  0  0  0  0  0
   56.0463  158.2815   -4.4083 H   0  0  0  0  0  0  0  0  0  0  0  0
   52.3784  156.5137   -5.5287 H   0  0  0  0  0  0  0  0  0  0  0  0
   53.0956  156.0914   -3.9921 H   0  0  0  0  0  0  0  0  0  0  0  0
   60.0829  162.1518   -2.7368 H   0  0  0  0  0  0  0  0  0  0  0  0
  1  3  2  0  0  0  0
  1  5  1  0  0  0  0
  2  4  1  0  0  0  0
  2  5  2  0  0  0  0
  3  6  1  0  0  0  0
  4  6  2  0  0  0  0
  5  8  1  0  0  0  0
  6 13  1  0  0  0  0
  7 10  1  0  0  0  0
  8 14  1  0  0  0  0
  9 10  1  0  0  0  0
  9 11  1  0  0  0  0
 10 14  1  0  0  0  0
 12 14  2  0  0  0  0
  1 15  1  0  0  0  0
  2 16  1  0  0  0  0
  3 17  1  0  0  0  0
  4 18  1  0  0  0  0
  7 19  1  0  0  0  0
  7 20  1  0  0  0  0
  7 21  1  0  0  0  0
  8 22  1  0  0  0  0
  8 23  1  0  0  0  0
  9 24  1  0  0  0  0
  9 25  1  0  0  0  0
 10 26  1  0  0  0  0
 11 27  1  0  0  0  0
 11 28  1  0  0  0  0
 13 29  1  0  0  0  0
M  END
> <FRED Chemgauss4 score>
-5.851644

$$$$
C35415528	P52545805
  -OEChem-05122015083D

 27 27  0     0  0  0  0  0  0999 V2000
   56.6241  162.3716   -3.4850 C   0  0  0  0  0  0  0  0  0  0  0  0
   55.1745  161.6324   -4.8147 C   0  0  0  0  0  0  0  0  0  0  0  0
   53.8097  156.2316   -2.9095 C   0  0  0  0  0  0  0  0  0  0  0  0
   57.1403  162.8908   -2.2124 C   0  0  0  0  0  0  0  0  0  0  0  0
   53.8075  161.1983   -5.2551 C   0  0  0  0  0  0  0  0  0  0  0  0
   54.5762  156.3418   -4.2317 C   0  0  0  0  0  0  0  0  0  0  0  0
   54.0828  157.3946   -5.2197 C   0  0  0  0  0  0  0  0  0  0  0  0
   54.2077  158.8057   -4.6602 C   0  0  0  0  0  0  0  0  0  0  0  0
   57.2549  162.1410   -4.6127 N   0  0  0  0  0  0  0  0  0  0  0  0
   56.3013  161.6549   -5.4875 N   0  0  0  0  0  0  0  0  0  0  0  0
   53.7590  159.7754   -5.6891 N   0  3  0  0  0  0  0  0  0  0  0  0
   54.1993  155.2900   -2.1604 O   0  5  0  0  0  0  0  0  0  0  0  0
   52.8831  157.0682   -2.7268 O   0  0  0  0  0  0  0  0  0  0  0  0
   55.2969  162.0734   -3.5329 O   0  0  0  0  0  0  0  0  0  0  0  0
   57.0803  163.9936   -2.1706 H   0  0  0  0  0  0  0  0  0  0  0  0
   56.5841  162.4984   -1.3402 H   0  0  0  0  0  0  0  0  0  0  0  0
   58.1974  162.6126   -2.0413 H   0  0  0  0  0  0  0  0  0  0  0  0
   53.0781  161.3051   -4.4449 H   0  0  0  0  0  0  0  0  0  0  0  0
   53.4559  161.7977   -6.1018 H   0  0  0  0  0  0  0  0  0  0  0  0
   55.6376  156.5146   -4.0142 H   0  0  0  0  0  0  0  0  0  0  0  0
   54.5075  155.3567   -4.7103 H   0  0  0  0  0  0  0  0  0  0  0  0
   53.0426  157.1923   -5.5030 H   0  0  0  0  0  0  0  0  0  0  0  0
   54.6781  157.3154   -6.1382 H   0  0  0  0  0  0  0  0  0  0  0  0
   55.2440  159.0591   -4.4180 H   0  0  0  0  0  0  0  0  0  0  0  0
   53.5761  158.9655   -3.7822 H   0  0  0  0  0  0  0  0  0  0  0  0
   52.7964  159.5460   -5.9765 H   0  0  0  0  0  0  0  0  0  0  0  0
   54.3351  159.6644   -6.5362 H   0  0  0  0  0  0  0  0  0  0  0  0
  1  4  1  0  0  0  0
  1  9  2  0  0  0  0
  1 14  1  0  0  0  0
  2  5  1  0  0  0  0
  2 10  2  0  0  0  0
  2 14  1  0  0  0  0
  3  6  1  0  0  0  0
  3 12  1  0  0  0  0
  3 13  2  0  0  0  0
  5 11  1  0  0  0  0
  6  7  1  0  0  0  0
  7  8  1  0  0  0  0
  8 11  1  0  0  0  0
  9 10  1  0  0  0  0
  4 15  1  0  0  0  0
  4 16  1  0  0  0  0
  4 17  1  0  0  0  0
  5 18  1  0  0  0  0
  5 19  1  0  0  0  0
  6 20  1  0  0  0  0
  6 21  1  0  0  0  0
  7 22  1  0  0  0  0
  7 23  1  0  0  0  0
  8 24  1  0  0  0  0
  8 25  1  0  0  0  0
 11 26  1  0  0  0  0
 11 27  1  0  0  0  0
M  CHG  2  11   1  12  -1
M  END
> <FRED Chemgauss4 score>
-5.851264

$$$$
C38038649	P57193787
  -OEChem-05122015083D

 24 24  0     0  0  0  0  0  0999 V2000
   54.6933  157.1408   -2.9590 C   0  0  0  0  0  0  0  0  0  0  0  0
   53.1001  156.0738   -3.7838 C   0  0  0  0  0  0  0  0  0  0  0  0
   56.9703  155.2432   -5.2424 C   0  0  0  0  0  0  0  0  0  0  0  0
   56.6153  156.5508   -4.5676 C   0  0  0  0  0  0  0  0  0  0  0  0
   58.3867  154.3534   -7.0834 C   0  0  0  0  0  0  0  0  0  0  0  0
   59.7915  154.6836   -7.5536 C   0  0  0  0  0  0  0  0  0  0  0  0
   53.3657  156.8766   -2.7796 N   0  0  0  0  0  0  0  0  0  0  0  0
   54.2255  155.8756   -4.5213 N   0  0  0  0  0  0  0  0  0  0  0  0
   55.2659  156.5519   -4.0110 N   0  0  0  0  0  0  0  0  0  0  0  0
   51.8645  155.5616   -3.9859 N   0  0  0  0  0  0  0  0  0  0  0  0
   57.8806  155.4359   -6.2715 N   0  0  0  0  0  0  0  0  0  0  0  0
   56.4994  154.1593   -4.9083 O   0  0  0  0  0  0  0  0  0  0  0  0
   60.6289  154.8991   -6.4248 O   0  0  0  0  0  0  0  0  0  0  0  0
   55.2444  157.7880   -2.2885 H   0  0  0  0  0  0  0  0  0  0  0  0
   56.6865  157.3719   -5.2897 H   0  0  0  0  0  0  0  0  0  0  0  0
   57.3190  156.7513   -3.7517 H   0  0  0  0  0  0  0  0  0  0  0  0
   57.7074  154.2133   -7.9302 H   0  0  0  0  0  0  0  0  0  0  0  0
   58.3927  153.4443   -6.4746 H   0  0  0  0  0  0  0  0  0  0  0  0
   59.7816  155.6030   -8.1473 H   0  0  0  0  0  0  0  0  0  0  0  0
   60.2149  153.8738   -8.1566 H   0  0  0  0  0  0  0  0  0  0  0  0
   51.0870  155.7396   -3.3353 H   0  0  0  0  0  0  0  0  0  0  0  0
   51.6680  154.8952   -4.7454 H   0  0  0  0  0  0  0  0  0  0  0  0
   58.1864  156.3783   -6.4952 H   0  0  0  0  0  0  0  0  0  0  0  0
   61.5129  155.1062   -6.7681 H   0  0  0  0  0  0  0  0  0  0  0  0
  1  7  2  0  0  0  0
  1  9  1  0  0  0  0
  2  7  1  0  0  0  0
  2  8  2  0  0  0  0
  2 10  1  0  0  0  0
  3  4  1  0  0  0  0
  3 11  1  0  0  0  0
  3 12  2  0  0  0  0
  4  9  1  0  0  0  0
  5  6  1  0  0  0  0
  5 11  1  0  0  0  0
  6 13  1  0  0  0  0
  8  9  1  0  0  0  0
  1 14  1  0  0  0  0
  4 15  1  0  0  0  0
  4 16  1  0  0  0  0
  5 17  1  0  0  0  0
  5 18  1  0  0  0  0
  6 19  1  0  0  0  0
  6 20  1  0  0  0  0
 10 21  1  0  0  0  0
 10 22  1  0  0  0  0
 11 23  1  0  0  0  0
 13 24  1  0  0  0  0
M  END
> <FRED Chemgauss4 score>
-5.849620

$$$$
C38995816	P59081245
  -OEChem-05122015083D

 15 15  0     0  0  0  0  0  0999 V2000
   55.5592  153.6395   -5.7094 C   0  0  0  0  0  0  0  0  0  0  0  0
   55.7487  154.8022   -6.4184 C   0  0  0  0  0  0  0  0  0  0  0  0
   54.7623  155.1882   -4.4859 C   0  0  0  0  0  0  0  0  0  0  0  0
   54.1332  155.9644   -3.3988 C   0  0  0  0  0  0  0  0  0  0  0  0
   54.9444  153.8866   -4.5075 N   0  0  0  0  0  0  0  0  0  0  0  0
   55.2328  155.7856   -5.6222 N   0  0  0  0  0  0  0  0  0  0  0  0
   52.7247  156.0734   -3.6324 O   0  0  0  0  0  0  0  0  0  0  0  0
   54.3768  155.3250   -2.1407 O   0  0  0  0  0  0  0  0  0  0  0  0
   55.1971  157.1366   -5.9212 O   0  0  0  0  0  0  0  0  0  0  0  0
   55.8330  152.6369   -6.0035 H   0  0  0  0  0  0  0  0  0  0  0  0
   56.1899  155.0099   -7.3829 H   0  0  0  0  0  0  0  0  0  0  0  0
   54.5412  156.9920   -3.3343 H   0  0  0  0  0  0  0  0  0  0  0  0
   52.3356  156.5874   -2.9045 H   0  0  0  0  0  0  0  0  0  0  0  0
   53.9532  155.8547   -1.4441 H   0  0  0  0  0  0  0  0  0  0  0  0
   55.6206  157.1419   -6.7992 H   0  0  0  0  0  0  0  0  0  0  0  0
  1  2  2  0  0  0  0
  1  5  1  0  0  0  0
  2  6  1  0  0  0  0
  3  4  1  0  0  0  0
  3  5  2  0  0  0  0
  3  6  1  0  0  0  0
  4  7  1  0  0  0  0
  4  8  1  0  0  0  0
  6  9  1  0  0  0  0
  1 10  1  0  0  0  0
  2 11  1  0  0  0  0
  4 12  1  0  0  0  0
  7 13  1  0  0  0  0
  8 14  1  0  0  0  0
  9 15  1  0  0  0  0
M  END
> <FRED Chemgauss4 score>
-5.846152

$$$$
C88999711	P139200393
  -OEChem-05122015083D

 31 32  0     0  0  0  0  0  0999 V2000
   55.4655  156.2746   -3.8786 C   0  0  0  0  0  0  0  0  0  0  0  0
   59.4688  162.8106   -4.5245 C   0  0  0  0  0  0  0  0  0  0  0  0
   59.9861  161.7730   -5.2713 C   0  0  0  0  0  0  0  0  0  0  0  0
   54.7649  155.7849   -5.0186 C   0  0  0  0  0  0  0  0  0  0  0  0
   53.9360  156.7393   -5.5659 C   0  0  0  0  0  0  0  0  0  0  0  0
   55.1456  157.5849   -3.5983 C   0  0  0  0  0  0  0  0  0  0  0  0
   57.8861  161.3328   -4.1763 C   0  0  0  0  0  0  0  0  0  0  0  0
   54.9185  154.4072   -5.5443 C   0  0  0  0  0  0  0  0  0  0  0  0
   53.0465  156.6322   -6.7442 C   0  0  0  0  0  0  0  0  0  0  0  0
   56.6173  160.6944   -3.6695 C   0  0  0  0  0  0  0  0  0  0  0  0
   58.2645  162.5602   -3.8962 N   0  0  0  0  0  0  0  0  0  0  0  0
   56.9514  159.4781   -2.9416 N   0  5  0  0  0  0  0  0  0  0  0  0
   51.6658  156.1669   -6.4161 N   0  3  0  0  0  0  0  0  0  0  0  0
   55.9639  157.8563   -1.1927 O   0  0  0  0  0  0  0  0  0  0  0  0
   54.4997  159.5813   -2.1401 O   0  0  0  0  0  0  0  0  0  0  0  0
   58.9311  160.4233   -5.1891 S   0  0  0  0  0  0  0  0  0  0  0  0
   54.0046  158.2189   -4.7066 S   0  0  0  0  0  0  0  0  0  0  0  0
   55.6667  158.7106   -2.3531 S   0  0  0  0  0  0  0  0  0  0  0  0
   56.1694  155.6977   -3.2918 H   0  0  0  0  0  0  0  0  0  0  0  0
   59.9346  163.7794   -4.4037 H   0  0  0  0  0  0  0  0  0  0  0  0
   60.9044  161.7437   -5.8405 H   0  0  0  0  0  0  0  0  0  0  0  0
   54.1924  153.7268   -5.0755 H   0  0  0  0  0  0  0  0  0  0  0  0
   54.7674  154.3680   -6.6342 H   0  0  0  0  0  0  0  0  0  0  0  0
   55.9281  154.0099   -5.3567 H   0  0  0  0  0  0  0  0  0  0  0  0
   52.9220  157.5985   -7.2606 H   0  0  0  0  0  0  0  0  0  0  0  0
   53.4324  155.9204   -7.4929 H   0  0  0  0  0  0  0  0  0  0  0  0
   56.0710  161.4078   -3.0403 H   0  0  0  0  0  0  0  0  0  0  0  0
   55.9549  160.4835   -4.5179 H   0  0  0  0  0  0  0  0  0  0  0  0
   51.5724  156.0068   -5.4110 H   0  0  0  0  0  0  0  0  0  0  0  0
   51.4589  155.2928   -6.9041 H   0  0  0  0  0  0  0  0  0  0  0  0
   50.9767  156.8670   -6.6984 H   0  0  0  0  0  0  0  0  0  0  0  0
  1  4  1  0  0  0  0
  1  6  2  0  0  0  0
  2  3  2  0  0  0  0
  2 11  1  0  0  0  0
  3 16  1  0  0  0  0
  4  5  2  0  0  0  0
  4  8  1  0  0  0  0
  5  9  1  0  0  0  0
  5 17  1  0  0  0  0
  6 17  1  0  0  0  0
  6 18  1  0  0  0  0
  7 10  1  0  0  0  0
  7 11  2  0  0  0  0
  7 16  1  0  0  0  0
  9 13  1  0  0  0  0
 10 12  1  0  0  0  0
 12 18  1  0  0  0  0
 14 18  2  0  0  0  0
 15 18  2  0  0  0  0
  1 19  1  0  0  0  0
  2 20  1  0  0  0  0
  3 21  1  0  0  0  0
  8 22  1  0  0  0  0
  8 23  1  0  0  0  0
  8 24  1  0  0  0  0
  9 25  1  0  0  0  0
  9 26  1  0  0  0  0
 10 27  1  0  0  0  0
 10 28  1  0  0  0  0
 13 29  1  0  0  0  0
 13 30  1  0  0  0  0
 13 31  1  0  0  0  0
M  CHG  2  12  -1  13   1
M  END
> <FRED Chemgauss4 score>
-5.844732

$$$$
C77293168	P120587004
  -OEChem-05122015083D

 28 28  0     1  0  0  0  0  0999 V2000
   54.9406  154.4020   -5.9422 C   0  0  1  0  0  0  0  0  0  0  0  0
   56.0059  155.2609   -6.6400 C   0  0  1  0  0  0  0  0  0  0  0  0
   53.9087  155.2776   -5.2400 C   0  0  2  0  0  0  0  0  0  0  0  0
   56.0750  156.6853   -6.0622 C   0  0  2  0  0  0  0  0  0  0  0  0
   54.5823  156.2402   -4.2500 C   0  0  1  0  0  0  0  0  0  0  0  0
   58.4611  156.9955   -5.3442 C   0  0  0  0  0  0  0  0  0  0  0  0
   57.3928  157.3937   -6.3499 C   0  0  2  0  0  0  0  0  0  0  0  0
   55.9021  156.6261   -4.6457 O   0  0  0  0  0  0  0  0  0  0  0  0
   54.2776  153.5982   -6.9184 O   0  0  0  0  0  0  0  0  0  0  0  0
   57.2607  154.5907   -6.5007 O   0  0  0  0  0  0  0  0  0  0  0  0
   52.9685  154.4653   -4.5366 O   0  0  0  0  0  0  0  0  0  0  0  0
   53.7378  157.3810   -4.0985 O   0  0  0  0  0  0  0  0  0  0  0  0
   59.7382  157.3170   -5.8850 O   0  0  0  0  0  0  0  0  0  0  0  0
   57.1815  158.7989   -6.2563 O   0  0  0  0  0  0  0  0  0  0  0  0
   55.4105  153.6997   -5.2371 H   0  0  0  0  0  0  0  0  0  0  0  0
   55.7756  155.3001   -7.7052 H   0  0  0  0  0  0  0  0  0  0  0  0
   53.3365  155.8535   -5.9865 H   0  0  0  0  0  0  0  0  0  0  0  0
   55.2905  157.2762   -6.4633 H   0  0  0  0  0  0  0  0  0  0  0  0
   54.6243  155.7635   -3.2365 H   0  0  0  0  0  0  0  0  0  0  0  0
   58.3469  157.5441   -4.4035 H   0  0  0  0  0  0  0  0  0  0  0  0
   58.4378  155.9195   -5.1450 H   0  0  0  0  0  0  0  0  0  0  0  0
   57.7230  157.1732   -7.3679 H   0  0  0  0  0  0  0  0  0  0  0  0
   53.8744  154.2132   -7.5489 H   0  0  0  0  0  0  0  0  0  0  0  0
   57.1619  153.7248   -6.9270 H   0  0  0  0  0  0  0  0  0  0  0  0
   53.4783  153.9536   -3.8906 H   0  0  0  0  0  0  0  0  0  0  0  0
   54.1842  157.9696   -3.4717 H   0  0  0  0  0  0  0  0  0  0  0  0
   60.3953  157.0518   -5.2223 H   0  0  0  0  0  0  0  0  0  0  0  0
   56.8773  158.9740   -5.3520 H   0  0  0  0  0  0  0  0  0  0  0  0
  1  2  1  0  0  0  0
  1  3  1  0  0  0  0
  1  9  1  0  0  0  0
  2  4  1  0  0  0  0
  2 10  1  0  0  0  0
  3  5  1  0  0  0  0
  3 11  1  0  0  0  0
  4  7  1  0  0  0  0
  4  8  1  0  0  0  0
  5  8  1  0  0  0  0
  5 12  1  0  0  0  0
  6  7  1  0  0  0  0
  6 13  1  0  0  0  0
  7 14  1  0  0  0  0
  1 15  1  0  0  0  0
  2 16  1  0  0  0  0
  3 17  1  0  0  0  0
  4 18  1  0  0  0  0
  5 19  1  0  0  0  0
  6 20  1  0  0  0  0
  6 21  1  0  0  0  0
  7 22  1  0  0  0  0
  9 23  1  0  0  0  0
 10 24  1  0  0  0  0
 11 25  1  0  0  0  0
 12 26  1  0  0  0  0
 13 27  1  0  0  0  0
 14 28  1  0  0  0  0
M  END
> <FRED Chemgauss4 score>
-5.843575

$$$$
C94371941	P147915902
  -OEChem-05122015083D

 43 45  0     1  0  0  0  0  0999 V2000
   54.9189  154.4512   -5.1959 C   0  0  0  0  0  0  0  0  0  0  0  0
   53.6879  155.0900   -5.8379 C   0  0  0  0  0  0  0  0  0  0  0  0
   56.0426  155.4767   -5.3186 C   0  0  0  0  0  0  0  0  0  0  0  0
   54.1270  156.4708   -6.3175 C   0  0  0  0  0  0  0  0  0  0  0  0
   58.3227  157.3810   -4.9869 C   0  0  0  0  0  0  0  0  0  0  0  0
   58.3043  160.7809   -3.4547 C   0  0  0  0  0  0  0  0  0  0  0  0
   57.6880  159.6938   -5.6951 C   0  0  0  0  0  0  0  0  0  0  0  0
   59.4039  158.0057   -4.1163 C   0  0  0  0  0  0  0  0  0  0  0  0
   59.4618  161.5148   -2.7944 C   0  0  0  0  0  0  0  0  0  0  0  0
   59.4658  161.4645   -5.4803 C   0  0  0  0  0  0  0  0  0  0  0  0
   57.1596  158.3544   -5.1741 C   0  0  1  0  0  0  0  0  0  0  0  0
   58.8147  160.2479   -4.8050 C   0  0  1  0  0  0  0  0  0  0  0  0
   55.3363  156.8313   -5.4470 C   0  0  0  0  0  0  0  0  0  0  0  0
   54.9095  157.3812   -4.0815 C   0  0  0  0  0  0  0  0  0  0  0  0
   56.1826  157.7988   -6.1074 N   0  0  0  0  0  0  0  0  0  0  0  0
   59.8419  159.2555   -4.6441 O   0  0  0  0  0  0  0  0  0  0  0  0
   53.7048  156.7450   -3.6962 O   0  0  0  0  0  0  0  0  0  0  0  0
   60.2799  162.3986   -4.1466 S   0  0  0  0  0  0  0  0  0  0  0  0
   54.7381  154.1852   -4.1489 H   0  0  0  0  0  0  0  0  0  0  0  0
   55.1804  153.5278   -5.7263 H   0  0  0  0  0  0  0  0  0  0  0  0
   53.3474  154.4793   -6.6826 H   0  0  0  0  0  0  0  0  0  0  0  0
   52.8536  155.1625   -5.1320 H   0  0  0  0  0  0  0  0  0  0  0  0
   56.6566  155.4507   -4.4068 H   0  0  0  0  0  0  0  0  0  0  0  0
   56.7102  155.2532   -6.1607 H   0  0  0  0  0  0  0  0  0  0  0  0
   54.3472  156.4794   -7.3930 H   0  0  0  0  0  0  0  0  0  0  0  0
   53.3091  157.1872   -6.1526 H   0  0  0  0  0  0  0  0  0  0  0  0
   58.7580  157.1355   -5.9648 H   0  0  0  0  0  0  0  0  0  0  0  0
   57.9779  156.4424   -4.5376 H   0  0  0  0  0  0  0  0  0  0  0  0
   57.9463  159.9912   -2.7879 H   0  0  0  0  0  0  0  0  0  0  0  0
   57.4648  161.4719   -3.6094 H   0  0  0  0  0  0  0  0  0  0  0  0
   58.0849  159.5442   -6.7094 H   0  0  0  0  0  0  0  0  0  0  0  0
   56.8701  160.4206   -5.7783 H   0  0  0  0  0  0  0  0  0  0  0  0
   59.0640  158.1305   -3.0833 H   0  0  0  0  0  0  0  0  0  0  0  0
   60.2744  157.3423   -4.0834 H   0  0  0  0  0  0  0  0  0  0  0  0
   59.1160  162.2092   -2.0242 H   0  0  0  0  0  0  0  0  0  0  0  0
   60.1726  160.8153   -2.3439 H   0  0  0  0  0  0  0  0  0  0  0  0
   60.2093  161.1792   -6.2307 H   0  0  0  0  0  0  0  0  0  0  0  0
   58.7223  162.1224   -5.9417 H   0  0  0  0  0  0  0  0  0  0  0  0
   56.6581  158.5066   -4.2158 H   0  0  0  0  0  0  0  0  0  0  0  0
   54.7437  158.4564   -4.1490 H   0  0  0  0  0  0  0  0  0  0  0  0
   55.6803  157.1735   -3.3394 H   0  0  0  0  0  0  0  0  0  0  0  0
   55.6097  158.5557   -6.4749 H   0  0  0  0  0  0  0  0  0  0  0  0
   53.4543  157.1086   -2.8298 H   0  0  0  0  0  0  0  0  0  0  0  0
  1  2  1  0  0  0  0
  1  3  1  0  0  0  0
  2  4  1  0  0  0  0
  3 13  1  0  0  0  0
  4 13  1  0  0  0  0
  5  8  1  0  0  0  0
  5 11  1  0  0  0  0
  6  9  1  0  0  0  0
  6 12  1  0  0  0  0
  7 11  1  0  0  0  0
  7 12  1  0  0  0  0
  8 16  1  0  0  0  0
  9 18  1  0  0  0  0
 10 12  1  0  0  0  0
 10 18  1  0  0  0  0
 11 15  1  0  0  0  0
 12 16  1  0  0  0  0
 13 14  1  0  0  0  0
 13 15  1  0  0  0  0
 14 17  1  0  0  0  0
  1 19  1  0  0  0  0
  1 20  1  0  0  0  0
  2 21  1  0  0  0  0
  2 22  1  0  0  0  0
  3 23  1  0  0  0  0
  3 24  1  0  0  0  0
  4 25  1  0  0  0  0
  4 26  1  0  0  0  0
  5 27  1  0  0  0  0
  5 28  1  0  0  0  0
  6 29  1  0  0  0  0
  6 30  1  0  0  0  0
  7 31  1  0  0  0  0
  7 32  1  0  0  0  0
  8 33  1  0  0  0  0
  8 34  1  0  0  0  0
  9 35  1  0  0  0  0
  9 36  1  0  0  0  0
 10 37  1  0  0  0  0
 10 38  1  0  0  0  0
 11 39  1  0  0  0  0
 14 40  1  0  0  0  0
 14 41  1  0  0  0  0
 15 42  1  0  0  0  0
 17 43  1  0  0  0  0
M  END
> <FRED Chemgauss4 score>
-5.841893

$$$$
C85004490	P133054962
  -OEChem-05122015083D

 23 23  0     1  0  0  0  0  0999 V2000
   54.3521  154.7973   -6.3863 C   0  0  0  0  0  0  0  0  0  0  0  0
   54.8181  156.7748   -5.9072 C   0  0  0  0  0  0  0  0  0  0  0  0
   55.7050  160.0838   -4.0319 C   0  0  0  0  0  0  0  0  0  0  0  0
   55.5018  158.0677   -5.5228 C   0  0  0  0  0  0  0  0  0  0  0  0
   54.8252  157.9294   -3.0185 C   0  0  0  0  0  0  0  0  0  0  0  0
   54.9055  158.7967   -4.2920 C   0  0  1  0  0  0  0  0  0  0  0  0
   55.3957  155.6022   -6.0290 N   0  0  0  0  0  0  0  0  0  0  0  0
   53.4909  156.6620   -6.1818 N   0  0  0  0  0  0  0  0  0  0  0  0
   53.1651  155.3982   -6.4933 N   0  0  0  0  0  0  0  0  0  0  0  0
   53.7817  156.9125   -3.0586 N   0  0  0  0  0  0  0  0  0  0  0  0
   53.5631  159.2033   -4.5928 O   0  0  0  0  0  0  0  0  0  0  0  0
   54.4779  153.7386   -6.5715 H   0  0  0  0  0  0  0  0  0  0  0  0
   55.3047  160.6217   -3.1649 H   0  0  0  0  0  0  0  0  0  0  0  0
   56.7668  159.8838   -3.8584 H   0  0  0  0  0  0  0  0  0  0  0  0
   55.6244  160.7707   -4.8827 H   0  0  0  0  0  0  0  0  0  0  0  0
   56.5698  157.8710   -5.3592 H   0  0  0  0  0  0  0  0  0  0  0  0
   55.4573  158.7307   -6.3982 H   0  0  0  0  0  0  0  0  0  0  0  0
   54.6719  158.5668   -2.1395 H   0  0  0  0  0  0  0  0  0  0  0  0
   55.7932  157.4408   -2.8481 H   0  0  0  0  0  0  0  0  0  0  0  0
   52.2192  155.1114   -6.7298 H   0  0  0  0  0  0  0  0  0  0  0  0
   52.9009  157.1559   -3.4604 H   0  0  0  0  0  0  0  0  0  0  0  0
   53.9058  156.0875   -2.5104 H   0  0  0  0  0  0  0  0  0  0  0  0
   53.2486  159.6827   -3.8139 H   0  0  0  0  0  0  0  0  0  0  0  0
  1  7  2  0  0  0  0
  1  9  1  0  0  0  0
  2  4  1  0  0  0  0
  2  7  1  0  0  0  0
  2  8  2  0  0  0  0
  3  6  1  0  0  0  0
  4  6  1  0  0  0  0
  5  6  1  0  0  0  0
  5 10  1  0  0  0  0
  6 11  1  0  0  0  0
  8  9  1  0  0  0  0
  1 12  1  0  0  0  0
  3 13  1  0  0  0  0
  3 14  1  0  0  0  0
  3 15  1  0  0  0  0
  4 16  1  0  0  0  0
  4 17  1  0  0  0  0
  5 18  1  0  0  0  0
  5 19  1  0  0  0  0
  9 20  1  0  0  0  0
 10 21  1  0  0  0  0
 10 22  1  0  0  0  0
 11 23  1  0  0  0  0
M  END
> <FRED Chemgauss4 score>
-5.841561

$$$$
C42040577	P63623457
  -OEChem-05122015083D

 26 26  0     1  0  0  0  0  0999 V2000
   54.7377  155.2446   -5.0566 C   0  0  0  0  0  0  0  0  0  0  0  0
   53.7006  155.9789   -3.2969 C   0  0  0  0  0  0  0  0  0  0  0  0
   58.0492  154.9819   -7.1362 C   0  0  0  0  0  0  0  0  0  0  0  0
   57.4996  156.3773   -5.1315 C   0  0  0  0  0  0  0  0  0  0  0  0
   56.2272  156.6909   -7.2541 C   0  0  0  0  0  0  0  0  0  0  0  0
   55.8342  154.6092   -5.8618 C   0  0  2  0  0  0  0  0  0  0  0  0
   56.8992  155.6379   -6.3462 C   0  0  0  0  0  0  0  0  0  0  0  0
   53.6309  155.7118   -5.5542 N   0  0  0  0  0  0  0  0  0  0  0  0
   54.8585  155.3645   -3.7188 N   0  0  0  0  0  0  0  0  0  0  0  0
   52.9544  156.1828   -4.4651 N   0  0  0  0  0  0  0  0  0  0  0  0
   55.1841  153.8800   -6.9484 N   0  0  0  0  0  0  0  0  0  0  0  0
   53.3865  156.2824   -2.1563 O   0  0  0  0  0  0  0  0  0  0  0  0
   57.6801  154.4405   -8.0134 H   0  0  0  0  0  0  0  0  0  0  0  0
   58.7816  155.7208   -7.4775 H   0  0  0  0  0  0  0  0  0  0  0  0
   58.5877  154.2581   -6.5128 H   0  0  0  0  0  0  0  0  0  0  0  0
   56.7238  156.8646   -4.5311 H   0  0  0  0  0  0  0  0  0  0  0  0
   58.2119  157.1468   -5.4499 H   0  0  0  0  0  0  0  0  0  0  0  0
   58.0340  155.6846   -4.4710 H   0  0  0  0  0  0  0  0  0  0  0  0
   55.3988  157.1885   -6.7363 H   0  0  0  0  0  0  0  0  0  0  0  0
   55.8206  156.2284   -8.1607 H   0  0  0  0  0  0  0  0  0  0  0  0
   56.9331  157.4702   -7.5617 H   0  0  0  0  0  0  0  0  0  0  0  0
   56.3200  153.8745   -5.2075 H   0  0  0  0  0  0  0  0  0  0  0  0
   55.6376  155.0654   -3.1448 H   0  0  0  0  0  0  0  0  0  0  0  0
   52.0415  156.6183   -4.4975 H   0  0  0  0  0  0  0  0  0  0  0  0
   54.2787  153.4989   -6.7806 H   0  0  0  0  0  0  0  0  0  0  0  0
   55.7391  153.6164   -7.7330 H   0  0  0  0  0  0  0  0  0  0  0  0
  1  6  1  0  0  0  0
  1  8  2  0  0  0  0
  1  9  1  0  0  0  0
  2  9  1  0  0  0  0
  2 10  1  0  0  0  0
  2 12  2  0  0  0  0
  3  7  1  0  0  0  0
  4  7  1  0  0  0  0
  5  7  1  0  0  0  0
  6  7  1  0  0  0  0
  6 11  1  0  0  0  0
  8 10  1  0  0  0  0
  3 13  1  0  0  0  0
  3 14  1  0  0  0  0
  3 15  1  0  0  0  0
  4 16  1  0  0  0  0
  4 17  1  0  0  0  0
  4 18  1  0  0  0  0
  5 19  1  0  0  0  0
  5 20  1  0  0  0  0
  5 21  1  0  0  0  0
  6 22  1  0  0  0  0
  9 23  1  0  0  0  0
 10 24  1  0  0  0  0
 11 25  1  0  0  0  0
 11 26  1  0  0  0  0
M  END
> <FRED Chemgauss4 score>
-5.832470

$$$$
C85170204	P133262360
  -OEChem-05122015083D

 32 33  0     1  0  0  0  0  0999 V2000
   54.0448  156.3515   -2.8706 C   0  0  0  0  0  0  0  0  0  0  0  0
   55.0843  158.2066   -2.7802 C   0  0  0  0  0  0  0  0  0  0  0  0
   54.8994  156.3467   -3.9477 C   0  0  0  0  0  0  0  0  0  0  0  0
   58.7356  154.7952   -7.8177 C   0  0  0  0  0  0  0  0  0  0  0  0
   58.7498  153.2931   -7.7633 C   0  0  0  0  0  0  0  0  0  0  0  0
   58.3235  154.0849   -6.5581 C   0  0  0  0  0  0  0  0  0  0  0  0
   56.5712  158.0282   -4.7833 C   0  0  0  0  0  0  0  0  0  0  0  0
   56.8962  154.0874   -6.1277 C   0  0  0  0  0  0  0  0  0  0  0  0
   54.2390  155.4939   -6.2614 C   0  0  0  0  0  0  0  0  0  0  0  0
   55.1474  155.3155   -5.0349 C   0  0  1  0  0  0  0  0  0  0  0  0
   54.1646  157.5121   -2.1480 N   0  0  0  0  0  0  0  0  0  0  0  0
   55.5583  157.5417   -3.8768 N   0  0  0  0  0  0  0  0  0  0  0  0
   52.8431  155.4213   -5.9167 N   0  0  0  0  0  0  0  0  0  0  0  0
   56.5530  155.3298   -5.4576 N   0  0  0  0  0  0  0  0  0  0  0  0
   53.3484  155.5793   -2.5766 H   0  0  0  0  0  0  0  0  0  0  0  0
   55.4437  159.1858   -2.4943 H   0  0  0  0  0  0  0  0  0  0  0  0
   59.6898  155.3071   -7.8365 H   0  0  0  0  0  0  0  0  0  0  0  0
   57.9596  155.2710   -8.4047 H   0  0  0  0  0  0  0  0  0  0  0  0
   57.9834  152.7618   -8.3141 H   0  0  0  0  0  0  0  0  0  0  0  0
   59.7135  152.7993   -7.7454 H   0  0  0  0  0  0  0  0  0  0  0  0
   59.0027  154.1217   -5.7149 H   0  0  0  0  0  0  0  0  0  0  0  0
   57.5445  157.7003   -4.4090 H   0  0  0  0  0  0  0  0  0  0  0  0
   56.3899  157.6235   -5.7830 H   0  0  0  0  0  0  0  0  0  0  0  0
   56.5245  159.1200   -4.8252 H   0  0  0  0  0  0  0  0  0  0  0  0
   56.7049  153.2674   -5.4290 H   0  0  0  0  0  0  0  0  0  0  0  0
   56.2309  153.9787   -6.9893 H   0  0  0  0  0  0  0  0  0  0  0  0
   54.3943  156.4792   -6.7155 H   0  0  0  0  0  0  0  0  0  0  0  0
   54.4248  154.7401   -7.0340 H   0  0  0  0  0  0  0  0  0  0  0  0
   54.9530  154.3196   -4.6155 H   0  0  0  0  0  0  0  0  0  0  0  0
   52.1772  155.1564   -6.6238 H   0  0  0  0  0  0  0  0  0  0  0  0
   52.5314  155.8263   -5.0492 H   0  0  0  0  0  0  0  0  0  0  0  0
   57.1377  155.4488   -4.6353 H   0  0  0  0  0  0  0  0  0  0  0  0
  1  3  2  0  0  0  0
  1 11  1  0  0  0  0
  2 11  2  0  0  0  0
  2 12  1  0  0  0  0
  3 10  1  0  0  0  0
  3 12  1  0  0  0  0
  4  5  1  0  0  0  0
  4  6  1  0  0  0  0
  5  6  1  0  0  0  0
  6  8  1  0  0  0  0
  7 12  1  0  0  0  0
  8 14  1  0  0  0  0
  9 10  1  0  0  0  0
  9 13  1  0  0  0  0
 10 14  1  0  0  0  0
  1 15  1  0  0  0  0
  2 16  1  0  0  0  0
  4 17  1  0  0  0  0
  4 18  1  0  0  0  0
  5 19  1  0  0  0  0
  5 20  1  0  0  0  0
  6 21  1  0  0  0  0
  7 22  1  0  0  0  0
  7 23  1  0  0  0  0
  7 24  1  0  0  0  0
  8 25  1  0  0  0  0
  8 26  1  0  0  0  0
  9 27  1  0  0  0  0
  9 28  1  0  0  0  0
 10 29  1  0  0  0  0
 13 30  1  0  0  0  0
 13 31  1  0  0  0  0
 14 32  1  0  0  0  0
M  END
> <FRED Chemgauss4 score>
-5.827705

$$$$
C20438719	P129507092
  -OEChem-05122015083D

 20 20  0     1  0  0  0  0  0999 V2000
   56.7551  154.3380   -6.4426 C   0  0  0  0  0  0  0  0  0  0  0  0
   56.6152  155.7100   -6.4268 C   0  0  0  0  0  0  0  0  0  0  0  0
   54.7278  155.1747   -5.4463 C   0  0  0  0  0  0  0  0  0  0  0  0
   57.5893  156.6822   -6.9610 C   0  0  0  0  0  0  0  0  0  0  0  0
   53.4640  156.1565   -3.5011 C   0  0  0  0  0  0  0  0  0  0  0  0
   53.3829  155.3017   -4.7684 C   0  0  1  0  0  0  0  0  0  0  0  0
   55.4531  156.1916   -5.8563 N   0  0  0  0  0  0  0  0  0  0  0  0
   54.3838  155.5535   -2.5628 N   0  0  0  0  0  0  0  0  0  0  0  0
   52.4665  155.8917   -5.6909 O   0  0  0  0  0  0  0  0  0  0  0  0
   55.3828  153.6114   -5.7145 S   0  0  0  0  0  0  0  0  0  0  0  0
   57.5697  153.7442   -6.8325 H   0  0  0  0  0  0  0  0  0  0  0  0
   57.3857  156.9068   -8.0207 H   0  0  0  0  0  0  0  0  0  0  0  0
   57.5687  157.6357   -6.4063 H   0  0  0  0  0  0  0  0  0  0  0  0
   58.6258  156.3106   -6.8900 H   0  0  0  0  0  0  0  0  0  0  0  0
   52.4821  156.2386   -3.0223 H   0  0  0  0  0  0  0  0  0  0  0  0
   53.8157  157.1687   -3.7290 H   0  0  0  0  0  0  0  0  0  0  0  0
   52.9934  154.3042   -4.5299 H   0  0  0  0  0  0  0  0  0  0  0  0
   54.4035  154.5533   -2.4796 H   0  0  0  0  0  0  0  0  0  0  0  0
   54.8291  156.1380   -1.8787 H   0  0  0  0  0  0  0  0  0  0  0  0
   51.6178  155.9591   -5.2282 H   0  0  0  0  0  0  0  0  0  0  0  0
  1  2  2  0  0  0  0
  1 10  1  0  0  0  0
  2  4  1  0  0  0  0
  2  7  1  0  0  0  0
  3  6  1  0  0  0  0
  3  7  2  0  0  0  0
  3 10  1  0  0  0  0
  5  6  1  0  0  0  0
  5  8  1  0  0  0  0
  6  9  1  0  0  0  0
  1 11  1  0  0  0  0
  4 12  1  0  0  0  0
  4 13  1  0  0  0  0
  4 14  1  0  0  0  0
  5 15  1  0  0  0  0
  5 16  1  0  0  0  0
  6 17  1  0  0  0  0
  8 18  1  0  0  0  0
  8 19  1  0  0  0  0
  9 20  1  0  0  0  0
M  END
> <FRED Chemgauss4 score>
-5.826422

$$$$
C03954260	P132242232
  -OEChem-05122015083D

 12 12  0     0  0  0  0  0  0999 V2000
   54.9531  156.0024   -2.2331 C   0  0  0  0  0  0  0  0  0  0  0  0
   53.6816  156.0149   -3.8885 C   0  0  0  0  0  0  0  0  0  0  0  0
   53.6398  156.4213   -6.3596 C   0  0  0  0  0  0  0  0  0  0  0  0
   54.9401  156.2260   -3.5801 N   0  0  0  0  0  0  0  0  0  0  0  0
   53.7818  155.6661   -1.6887 N   0  0  0  0  0  0  0  0  0  0  0  0
   52.9858  155.6812   -2.7686 N   0  0  0  0  0  0  0  0  0  0  0  0
   53.0743  156.0935   -5.1123 N   0  0  0  0  0  0  0  0  0  0  0  0
   54.7992  156.7080   -6.6230 O   0  0  0  0  0  0  0  0  0  0  0  0
   55.8443  156.0871   -1.6293 H   0  0  0  0  0  0  0  0  0  0  0  0
   52.8775  156.3953   -7.1571 H   0  0  0  0  0  0  0  0  0  0  0  0
   52.0030  155.4584   -2.6649 H   0  0  0  0  0  0  0  0  0  0  0  0
   52.0579  155.8904   -5.1698 H   0  0  0  0  0  0  0  0  0  0  0  0
  1  4  1  0  0  0  0
  1  5  2  0  0  0  0
  2  4  2  0  0  0  0
  2  6  1  0  0  0  0
  2  7  1  0  0  0  0
  3  7  1  0  0  0  0
  3  8  2  0  0  0  0
  5  6  1  0  0  0  0
  1  9  1  0  0  0  0
  3 10  1  0  0  0  0
  6 11  1  0  0  0  0
  7 12  1  0  0  0  0
M  END
> <FRED Chemgauss4 score>
-5.819878

$$$$
C38600476	P58429224
  -OEChem-05122015083D

 25 25  0     1  0  0  0  0  0999 V2000
   53.0374  155.3718   -4.5682 C   0  0  1  0  0  0  0  0  0  0  0  0
   53.5913  156.2135   -5.7349 C   0  0  1  0  0  0  0  0  0  0  0  0
   53.3518  156.0382   -3.2269 C   0  0  2  0  0  0  0  0  0  0  0  0
   54.7382  157.1373   -5.2846 C   0  0  2  0  0  0  0  0  0  0  0  0
   54.8688  156.2440   -3.0747 C   0  0  1  0  0  0  0  0  0  0  0  0
   55.6461  157.5792   -6.4256 C   0  0  0  0  0  0  0  0  0  0  0  0
   51.5929  155.1948   -4.7412 N   0  0  0  0  0  0  0  0  0  0  0  0
   55.5405  156.4570   -4.3192 O   0  0  0  0  0  0  0  0  0  0  0  0
   54.0509  155.3145   -6.7463 O   0  0  0  0  0  0  0  0  0  0  0  0
   52.9164  155.2262   -2.1373 O   0  0  0  0  0  0  0  0  0  0  0  0
   55.0809  157.3381   -2.1825 O   0  0  0  0  0  0  0  0  0  0  0  0
   56.3369  158.7487   -6.0253 O   0  0  0  0  0  0  0  0  0  0  0  0
   53.5105  154.3851   -4.5982 H   0  0  0  0  0  0  0  0  0  0  0  0
   52.7856  156.8079   -6.1846 H   0  0  0  0  0  0  0  0  0  0  0  0
   52.8460  157.0019   -3.1486 H   0  0  0  0  0  0  0  0  0  0  0  0
   54.3201  158.0393   -4.8190 H   0  0  0  0  0  0  0  0  0  0  0  0
   55.3139  155.3620   -2.6142 H   0  0  0  0  0  0  0  0  0  0  0  0
   55.0504  157.7985   -7.3119 H   0  0  0  0  0  0  0  0  0  0  0  0
   56.3680  156.7945   -6.6527 H   0  0  0  0  0  0  0  0  0  0  0  0
   51.0548  154.9655   -3.9373 H   0  0  0  0  0  0  0  0  0  0  0  0
   51.2446  155.1091   -5.6685 H   0  0  0  0  0  0  0  0  0  0  0  0
   53.2811  154.7921   -7.0145 H   0  0  0  0  0  0  0  0  0  0  0  0
   53.3939  154.3876   -2.2168 H   0  0  0  0  0  0  0  0  0  0  0  0
   56.0414  157.4487   -2.1022 H   0  0  0  0  0  0  0  0  0  0  0  0
   56.9080  159.0108   -6.7673 H   0  0  0  0  0  0  0  0  0  0  0  0
  1  2  1  0  0  0  0
  1  3  1  0  0  0  0
  1  7  1  0  0  0  0
  2  4  1  0  0  0  0
  2  9  1  0  0  0  0
  3  5  1  0  0  0  0
  3 10  1  0  0  0  0
  4  6  1  0  0  0  0
  4  8  1  0  0  0  0
  5  8  1  0  0  0  0
  5 11  1  0  0  0  0
  6 12  1  0  0  0  0
  1 13  1  0  0  0  0
  2 14  1  0  0  0  0
  3 15  1  0  0  0  0
  4 16  1  0  0  0  0
  5 17  1  0  0  0  0
  6 18  1  0  0  0  0
  6 19  1  0  0  0  0
  7 20  1  0  0  0  0
  7 21  1  0  0  0  0
  9 22  1  0  0  0  0
 10 23  1  0  0  0  0
 11 24  1  0  0  0  0
 12 25  1  0  0  0  0
M  END
> <FRED Chemgauss4 score>
-5.818168

$$$$
C40545288	P61562844
  -OEChem-05122015083D

 24 24  0     1  0  0  0  0  0999 V2000
   55.7480  156.2178   -4.0121 C   0  0  0  0  0  0  0  0  0  0  0  0
   54.2538  156.1856   -3.7151 C   0  0  1  0  0  0  0  0  0  0  0  0
   53.5060  155.3209   -4.7313 C   0  0  2  0  0  0  0  0  0  0  0  0
   53.9053  155.7119   -6.1543 C   0  0  1  0  0  0  0  0  0  0  0  0
   55.4261  155.7694   -6.3254 C   0  0  1  0  0  0  0  0  0  0  0  0
   57.3151  154.4812   -6.9189 C   0  0  0  0  0  0  0  0  0  0  0  0
   56.0092  156.6367   -5.3493 O   0  0  0  0  0  0  0  0  0  0  0  0
   54.0702  155.6693   -2.4011 O   0  0  0  0  0  0  0  0  0  0  0  0
   52.1001  155.5343   -4.5905 O   0  0  0  0  0  0  0  0  0  0  0  0
   53.3412  154.7847   -7.0755 O   0  0  0  0  0  0  0  0  0  0  0  0
   58.2591  155.2579   -6.1958 O   0  0  0  0  0  0  0  0  0  0  0  0
   56.0247  154.4744   -6.3219 O   0  0  0  0  0  0  0  0  0  0  0  0
   56.2432  156.9230   -3.3352 H   0  0  0  0  0  0  0  0  0  0  0  0
   56.2162  155.2436   -3.8235 H   0  0  0  0  0  0  0  0  0  0  0  0
   53.8529  157.2062   -3.7306 H   0  0  0  0  0  0  0  0  0  0  0  0
   53.6806  154.2559   -4.5508 H   0  0  0  0  0  0  0  0  0  0  0  0
   53.4762  156.6961   -6.3775 H   0  0  0  0  0  0  0  0  0  0  0  0
   55.6501  156.2151   -7.3226 H   0  0  0  0  0  0  0  0  0  0  0  0
   57.2713  154.8137   -7.9625 H   0  0  0  0  0  0  0  0  0  0  0  0
   57.6743  153.4480   -6.9143 H   0  0  0  0  0  0  0  0  0  0  0  0
   54.5380  156.2693   -1.7990 H   0  0  0  0  0  0  0  0  0  0  0  0
   51.9483  156.4768   -4.7571 H   0  0  0  0  0  0  0  0  0  0  0  0
   53.6183  155.0691   -7.9607 H   0  0  0  0  0  0  0  0  0  0  0  0
   59.1034  155.2037   -6.6745 H   0  0  0  0  0  0  0  0  0  0  0  0
  1  2  1  0  0  0  0
  1  7  1  0  0  0  0
  2  3  1  0  0  0  0
  2  8  1  0  0  0  0
  3  4  1  0  0  0  0
  3  9  1  0  0  0  0
  4  5  1  0  0  0  0
  4 10  1  0  0  0  0
  5  7  1  0  0  0  0
  5 12  1  0  0  0  0
  6 11  1  0  0  0  0
  6 12  1  0  0  0  0
  1 13  1  0  0  0  0
  1 14  1  0  0  0  0
  2 15  1  0  0  0  0
  3 16  1  0  0  0  0
  4 17  1  0  0  0  0
  5 18  1  0  0  0  0
  6 19  1  0  0  0  0
  6 20  1  0  0  0  0
  8 21  1  0  0  0  0
  9 22  1  0  0  0  0
 10 23  1  0  0  0  0
 11 24  1  0  0  0  0
M  END
> <FRED Chemgauss4 score>
-5.818012

$$$$
C83811975	P131111335
  -OEChem-05122015083D

 24 24  0     1  0  0  0  0  0999 V2000
   55.2923  157.2236   -4.5585 C   0  0  0  0  0  0  0  0  0  0  0  0
   53.7531  156.3527   -3.4852 C   0  0  0  0  0  0  0  0  0  0  0  0
   58.0494  153.4434   -7.4177 C   0  0  0  0  0  0  0  0  0  0  0  0
   57.5297  156.6237   -5.6329 C   0  0  0  0  0  0  0  0  0  0  0  0
   57.1879  155.4459   -6.5396 C   0  0  0  0  0  0  0  0  0  0  0  0
   56.3895  157.6475   -5.5123 C   0  0  2  0  0  0  0  0  0  0  0  0
   54.5091  156.1758   -4.6074 N   0  0  0  0  0  0  0  0  0  0  0  0
   54.0314  157.4420   -2.7630 N   0  0  0  0  0  0  0  0  0  0  0  0
   52.7983  155.4318   -3.1951 N   0  0  0  0  0  0  0  0  0  0  0  0
   56.9146  158.9408   -5.1303 N   0  0  0  0  0  0  0  0  0  0  0  0
   55.0736  158.0324   -3.4888 O   0  0  0  0  0  0  0  0  0  0  0  0
   58.2949  154.5539   -6.5658 O   0  0  0  0  0  0  0  0  0  0  0  0
   58.9183  152.7809   -7.4135 H   0  0  0  0  0  0  0  0  0  0  0  0
   57.8531  153.7981   -8.4326 H   0  0  0  0  0  0  0  0  0  0  0  0
   57.1769  152.8987   -7.0491 H   0  0  0  0  0  0  0  0  0  0  0  0
   58.4254  157.1207   -6.0307 H   0  0  0  0  0  0  0  0  0  0  0  0
   57.8344  156.2484   -4.6471 H   0  0  0  0  0  0  0  0  0  0  0  0
   56.3164  154.8970   -6.1709 H   0  0  0  0  0  0  0  0  0  0  0  0
   56.9915  155.7849   -7.5617 H   0  0  0  0  0  0  0  0  0  0  0  0
   55.9639  157.8008   -6.5121 H   0  0  0  0  0  0  0  0  0  0  0  0
   52.6031  154.6406   -3.8195 H   0  0  0  0  0  0  0  0  0  0  0  0
   52.1701  155.5402   -2.3904 H   0  0  0  0  0  0  0  0  0  0  0  0
   56.2889  159.6172   -4.7335 H   0  0  0  0  0  0  0  0  0  0  0  0
   57.8276  159.2046   -5.4518 H   0  0  0  0  0  0  0  0  0  0  0  0
  1  6  1  0  0  0  0
  1  7  2  0  0  0  0
  1 11  1  0  0  0  0
  2  7  1  0  0  0  0
  2  8  2  0  0  0  0
  2  9  1  0  0  0  0
  3 12  1  0  0  0  0
  4  5  1  0  0  0  0
  4  6  1  0  0  0  0
  5 12  1  0  0  0  0
  6 10  1  0  0  0  0
  8 11  1  0  0  0  0
  3 13  1  0  0  0  0
  3 14  1  0  0  0  0
  3 15  1  0  0  0  0
  4 16  1  0  0  0  0
  4 17  1  0  0  0  0
  5 18  1  0  0  0  0
  5 19  1  0  0  0  0
  6 20  1  0  0  0  0
  9 21  1  0  0  0  0
  9 22  1  0  0  0  0
 10 23  1  0  0  0  0
 10 24  1  0  0  0  0
M  END
> <FRED Chemgauss4 score>
-5.817724

$$$$
C94090624	P147455962
  -OEChem-05122015083D

 35 37  0     1  0  0  0  0  0999 V2000
   55.1612  159.6306   -4.4856 C   0  0  0  0  0  0  0  0  0  0  0  0
   54.1705  158.6462   -4.4529 C   0  0  0  0  0  0  0  0  0  0  0  0
   54.9229  157.8975   -2.2656 C   0  0  0  0  0  0  0  0  0  0  0  0
   61.1285  162.7100   -5.2071 C   0  0  0  0  0  0  0  0  0  0  0  0
   60.8441  161.3537   -7.1774 C   0  0  0  0  0  0  0  0  0  0  0  0
   56.0346  159.7264   -3.4130 C   0  0  0  0  0  0  0  0  0  0  0  0
   55.9103  158.8679   -2.3121 C   0  0  0  0  0  0  0  0  0  0  0  0
   54.0528  157.7852   -3.3513 C   0  0  0  0  0  0  0  0  0  0  0  0
   60.1508  161.7402   -5.1329 C   0  0  0  0  0  0  0  0  0  0  0  0
   56.9170  159.1988   -1.2556 C   0  0  0  0  0  0  0  0  0  0  0  0
   57.9325  160.0210   -2.0610 C   0  0  0  0  0  0  0  0  0  0  0  0
   57.1424  160.7143   -3.1871 C   0  0  1  0  0  0  0  0  0  0  0  0
   57.2969  161.8989   -5.2493 C   0  0  0  0  0  0  0  0  0  0  0  0
   59.2702  161.4726   -3.9467 C   0  0  0  0  0  0  0  0  0  0  0  0
   59.9859  160.9617   -6.2620 N   0  0  0  0  0  0  0  0  0  0  0  0
   53.0476  156.7938   -3.3441 N   0  0  0  0  0  0  0  0  0  0  0  0
   57.9583  160.9593   -4.3431 N   0  0  1  0  0  0  0  0  0  0  0  0
   61.8798  162.6528   -6.7478 S   0  0  0  0  0  0  0  0  0  0  0  0
   55.2419  160.3013   -5.3355 H   0  0  0  0  0  0  0  0  0  0  0  0
   53.4912  158.5511   -5.2972 H   0  0  0  0  0  0  0  0  0  0  0  0
   54.8330  157.2431   -1.4037 H   0  0  0  0  0  0  0  0  0  0  0  0
   61.4323  163.4272   -4.4576 H   0  0  0  0  0  0  0  0  0  0  0  0
   60.8998  160.8869   -8.1513 H   0  0  0  0  0  0  0  0  0  0  0  0
   56.4872  159.7857   -0.4385 H   0  0  0  0  0  0  0  0  0  0  0  0
   57.3676  158.2815   -0.8620 H   0  0  0  0  0  0  0  0  0  0  0  0
   58.3641  160.7920   -1.4067 H   0  0  0  0  0  0  0  0  0  0  0  0
   58.7693  159.4128   -2.4208 H   0  0  0  0  0  0  0  0  0  0  0  0
   56.7313  161.6745   -2.8039 H   0  0  0  0  0  0  0  0  0  0  0  0
   57.9241  162.0800   -6.1261 H   0  0  0  0  0  0  0  0  0  0  0  0
   57.1180  162.8508   -4.7420 H   0  0  0  0  0  0  0  0  0  0  0  0
   56.3375  161.4926   -5.5807 H   0  0  0  0  0  0  0  0  0  0  0  0
   59.7332  160.7364   -3.2805 H   0  0  0  0  0  0  0  0  0  0  0  0
   59.1103  162.3848   -3.3623 H   0  0  0  0  0  0  0  0  0  0  0  0
   52.4025  156.7501   -4.1057 H   0  0  0  0  0  0  0  0  0  0  0  0
   52.9407  156.2161   -2.5359 H   0  0  0  0  0  0  0  0  0  0  0  0
  1  2  1  0  0  0  0
  1  6  2  0  0  0  0
  2  8  2  0  0  0  0
  3  7  2  0  0  0  0
  3  8  1  0  0  0  0
  4  9  2  0  0  0  0
  4 18  1  0  0  0  0
  5 15  2  0  0  0  0
  5 18  1  0  0  0  0
  6  7  1  0  0  0  0
  6 12  1  0  0  0  0
  7 10  1  0  0  0  0
  8 16  1  0  0  0  0
  9 14  1  0  0  0  0
  9 15  1  0  0  0  0
 10 11  1  0  0  0  0
 11 12  1  0  0  0  0
 12 17  1  0  0  0  0
 13 17  1  0  0  0  0
 14 17  1  0  0  0  0
  1 19  1  0  0  0  0
  2 20  1  0  0  0  0
  3 21  1  0  0  0  0
  4 22  1  0  0  0  0
  5 23  1  0  0  0  0
 10 24  1  0  0  0  0
 10 25  1  0  0  0  0
 11 26  1  0  0  0  0
 11 27  1  0  0  0  0
 12 28  1  0  0  0  0
 13 29  1  0  0  0  0
 13 30  1  0  0  0  0
 13 31  1  0  0  0  0
 14 32  1  0  0  0  0
 14 33  1  0  0  0  0
 16 34  1  0  0  0  0
 16 35  1  0  0  0  0
M  END
> <FRED Chemgauss4 score>
-5.812093

$$$$
C79162526	P123601573
  -OEChem-05122015083D

 20 20  0     1  0  0  0  0  0999 V2000
   56.9176  155.4823   -6.1571 C   0  0  0  0  0  0  0  0  0  0  0  0
   57.2094  156.5102   -7.0225 C   0  0  0  0  0  0  0  0  0  0  0  0
   55.1085  156.5849   -6.3614 C   0  0  0  0  0  0  0  0  0  0  0  0
   53.6928  157.1024   -6.2626 C   0  0  0  0  0  0  0  0  0  0  0  0
   53.9717  157.9733   -3.9134 C   0  0  0  0  0  0  0  0  0  0  0  0
   53.5855  158.3270   -5.3480 C   0  0  2  0  0  0  0  0  0  0  0  0
   55.6082  155.5343   -5.7494 N   0  0  0  0  0  0  0  0  0  0  0  0
   56.0407  157.2077   -7.1440 N   0  0  0  0  0  0  0  0  0  0  0  0
   53.1264  156.9359   -3.4267 O   0  0  0  0  0  0  0  0  0  0  0  0
   52.2300  158.7792   -5.3502 O   0  0  0  0  0  0  0  0  0  0  0  0
   57.5834  154.7068   -5.8081 H   0  0  0  0  0  0  0  0  0  0  0  0
   58.1094  156.8002   -7.5448 H   0  0  0  0  0  0  0  0  0  0  0  0
   53.3290  157.3470   -7.2691 H   0  0  0  0  0  0  0  0  0  0  0  0
   53.0551  156.2903   -5.8903 H   0  0  0  0  0  0  0  0  0  0  0  0
   55.0012  157.6049   -3.8621 H   0  0  0  0  0  0  0  0  0  0  0  0
   53.8703  158.8338   -3.2447 H   0  0  0  0  0  0  0  0  0  0  0  0
   54.2057  159.1533   -5.7148 H   0  0  0  0  0  0  0  0  0  0  0  0
   55.8944  158.0347   -7.7077 H   0  0  0  0  0  0  0  0  0  0  0  0
   53.4109  156.7495   -2.5182 H   0  0  0  0  0  0  0  0  0  0  0  0
   51.6963  158.0419   -5.0185 H   0  0  0  0  0  0  0  0  0  0  0  0
  1  2  2  0  0  0  0
  1  7  1  0  0  0  0
  2  8  1  0  0  0  0
  3  4  1  0  0  0  0
  3  7  2  0  0  0  0
  3  8  1  0  0  0  0
  4  6  1  0  0  0  0
  5  6  1  0  0  0  0
  5  9  1  0  0  0  0
  6 10  1  0  0  0  0
  1 11  1  0  0  0  0
  2 12  1  0  0  0  0
  4 13  1  0  0  0  0
  4 14  1  0  0  0  0
  5 15  1  0  0  0  0
  5 16  1  0  0  0  0
  6 17  1  0  0  0  0
  8 18  1  0  0  0  0
  9 19  1  0  0  0  0
 10 20  1  0  0  0  0
M  END
> <FRED Chemgauss4 score>
-5.810429

$$$$
C35382256	P52512186
  -OEChem-05122015083D

 24 25  0     1  0  0  0  0  0999 V2000
   55.8530  158.0471   -2.5236 C   0  0  0  0  0  0  0  0  0  0  0  0
   55.8746  154.8713   -6.4038 C   0  0  0  0  0  0  0  0  0  0  0  0
   54.7176  154.1902   -6.7003 C   0  0  0  0  0  0  0  0  0  0  0  0
   57.1161  158.5404   -2.7543 C   0  0  0  0  0  0  0  0  0  0  0  0
   56.0270  158.7650   -4.6286 C   0  0  0  0  0  0  0  0  0  0  0  0
   55.1457  158.1929   -3.7409 C   0  0  0  0  0  0  0  0  0  0  0  0
   54.2888  156.2066   -5.9216 C   0  0  0  0  0  0  0  0  0  0  0  0
   53.4525  157.3868   -5.4819 C   0  0  0  0  0  0  0  0  0  0  0  0
   53.7044  157.7980   -4.0141 C   0  0  1  0  0  0  0  0  0  0  0  0
   55.6008  156.1258   -5.9192 N   0  0  0  0  0  0  0  0  0  0  0  0
   53.7102  155.0582   -6.3858 N   0  0  0  0  0  0  0  0  0  0  0  0
   53.2799  156.7116   -3.1207 N   0  0  0  0  0  0  0  0  0  0  0  0
   57.2303  158.9801   -4.0350 O   0  0  0  0  0  0  0  0  0  0  0  0
   55.4910  157.6346   -1.5926 H   0  0  0  0  0  0  0  0  0  0  0  0
   56.8906  154.5217   -6.5133 H   0  0  0  0  0  0  0  0  0  0  0  0
   54.5244  153.2025   -7.0929 H   0  0  0  0  0  0  0  0  0  0  0  0
   58.0013  158.6440   -2.1440 H   0  0  0  0  0  0  0  0  0  0  0  0
   55.9579  159.0667   -5.6638 H   0  0  0  0  0  0  0  0  0  0  0  0
   52.3965  157.1135   -5.6161 H   0  0  0  0  0  0  0  0  0  0  0  0
   53.6220  158.2323   -6.1617 H   0  0  0  0  0  0  0  0  0  0  0  0
   53.0615  158.6559   -3.7791 H   0  0  0  0  0  0  0  0  0  0  0  0
   52.7187  154.8828   -6.4822 H   0  0  0  0  0  0  0  0  0  0  0  0
   52.4993  156.1651   -3.3993 H   0  0  0  0  0  0  0  0  0  0  0  0
   53.6522  156.7008   -2.2003 H   0  0  0  0  0  0  0  0  0  0  0  0
  1  4  2  0  0  0  0
  1  6  1  0  0  0  0
  2  3  2  0  0  0  0
  2 10  1  0  0  0  0
  3 11  1  0  0  0  0
  4 13  1  0  0  0  0
  5  6  2  0  0  0  0
  5 13  1  0  0  0  0
  6  9  1  0  0  0  0
  7  8  1  0  0  0  0
  7 10  2  0  0  0  0
  7 11  1  0  0  0  0
  8  9  1  0  0  0  0
  9 12  1  0  0  0  0
  1 14  1  0  0  0  0
  2 15  1  0  0  0  0
  3 16  1  0  0  0  0
  4 17  1  0  0  0  0
  5 18  1  0  0  0  0
  8 19  1  0  0  0  0
  8 20  1  0  0  0  0
  9 21  1  0  0  0  0
 11 22  1  0  0  0  0
 12 23  1  0  0  0  0
 12 24  1  0  0  0  0
M  END
> <FRED Chemgauss4 score>
-5.806880

$$$$
C83574842	P130736246
  -OEChem-05122015083D

 26 27  0     1  0  0  0  0  0999 V2000
   56.6408  154.3038   -6.8385 C   0  0  0  0  0  0  0  0  0  0  0  0
   56.7041  153.1260   -7.5422 C   0  0  0  0  0  0  0  0  0  0  0  0
   55.2736  154.4646   -6.5438 C   0  0  0  0  0  0  0  0  0  0  0  0
   54.6830  155.5936   -5.7919 C   0  0  0  0  0  0  0  0  0  0  0  0
   54.5642  157.3805   -4.7196 C   0  0  0  0  0  0  0  0  0  0  0  0
   54.1291  159.8704   -4.6176 C   0  0  0  0  0  0  0  0  0  0  0  0
   54.9806  151.4603   -8.2748 C   0  0  0  0  0  0  0  0  0  0  0  0
   54.8495  158.6772   -3.9930 C   0  0  1  0  0  0  0  0  0  0  0  0
   54.5226  153.4688   -7.0215 N   0  0  0  0  0  0  0  0  0  0  0  0
   55.4525  156.6109   -5.3045 N   0  0  0  0  0  0  0  0  0  0  0  0
   53.3253  156.8368   -4.8584 N   0  0  0  0  0  0  0  0  0  0  0  0
   53.3745  155.6853   -5.5454 N   0  0  0  0  0  0  0  0  0  0  0  0
   55.4210  152.6709   -7.6235 N   0  0  0  0  0  0  0  0  0  0  0  0
   54.5225  158.5792   -2.5889 N   0  0  0  0  0  0  0  0  0  0  0  0
   57.4699  154.9469   -6.5805 H   0  0  0  0  0  0  0  0  0  0  0  0
   57.5336  152.5883   -7.9803 H   0  0  0  0  0  0  0  0  0  0  0  0
   53.0435  159.7242   -4.6095 H   0  0  0  0  0  0  0  0  0  0  0  0
   54.3522  160.7878   -4.0613 H   0  0  0  0  0  0  0  0  0  0  0  0
   54.4395  160.0396   -5.6549 H   0  0  0  0  0  0  0  0  0  0  0  0
   55.0077  150.6524   -7.5389 H   0  0  0  0  0  0  0  0  0  0  0  0
   53.9639  151.5992   -8.6527 H   0  0  0  0  0  0  0  0  0  0  0  0
   55.6469  151.2379   -9.1130 H   0  0  0  0  0  0  0  0  0  0  0  0
   55.9269  158.8801   -4.0294 H   0  0  0  0  0  0  0  0  0  0  0  0
   52.5488  155.1294   -5.7512 H   0  0  0  0  0  0  0  0  0  0  0  0
   54.3502  159.4225   -2.0717 H   0  0  0  0  0  0  0  0  0  0  0  0
   54.6721  157.7056   -2.1167 H   0  0  0  0  0  0  0  0  0  0  0  0
  1  2  2  0  0  0  0
  1  3  1  0  0  0  0
  2 13  1  0  0  0  0
  3  4  1  0  0  0  0
  3  9  2  0  0  0  0
  4 10  2  0  0  0  0
  4 12  1  0  0  0  0
  5  8  1  0  0  0  0
  5 10  1  0  0  0  0
  5 11  2  0  0  0  0
  6  8  1  0  0  0  0
  7 13  1  0  0  0  0
  8 14  1  0  0  0  0
  9 13  1  0  0  0  0
 11 12  1  0  0  0  0
  1 15  1  0  0  0  0
  2 16  1  0  0  0  0
  6 17  1  0  0  0  0
  6 18  1  0  0  0  0
  6 19  1  0  0  0  0
  7 20  1  0  0  0  0
  7 21  1  0  0  0  0
  7 22  1  0  0  0  0
  8 23  1  0  0  0  0
 12 24  1  0  0  0  0
 14 25  1  0  0  0  0
 14 26  1  0  0  0  0
M  END
> <FRED Chemgauss4 score>
-5.803314

$$$$
C14241055	P21824158
  -OEChem-05122015083D

 20 20  0     1  0  0  0  0  0999 V2000
   54.9722  155.1259   -5.0203 C   0  0  0  0  0  0  0  0  0  0  0  0
   55.8564  155.9984   -5.5484 C   0  0  0  0  0  0  0  0  0  0  0  0
   55.5802  153.7822   -5.1939 C   0  0  0  0  0  0  0  0  0  0  0  0
   53.6856  155.4134   -4.4044 C   0  0  0  0  0  0  0  0  0  0  0  0
   56.9185  153.8920   -5.8769 C   0  0  0  0  0  0  0  0  0  0  0  0
   58.1265  155.9372   -6.6883 C   0  0  0  0  0  0  0  0  0  0  0  0
   56.9833  155.3318   -6.0462 N   0  0  3  0  0  0  0  0  0  0  0  0
   55.6770  157.3537   -5.5926 N   0  0  0  0  0  0  0  0  0  0  0  0
   52.7934  156.0439   -5.2461 N   0  0  0  0  0  0  0  0  0  0  0  0
   55.0584  152.7403   -4.8303 O   0  0  0  0  0  0  0  0  0  0  0  0
   53.4361  155.1114   -3.2339 O   0  0  0  0  0  0  0  0  0  0  0  0
   57.7127  153.5261   -5.2214 H   0  0  0  0  0  0  0  0  0  0  0  0
   56.9000  153.3720   -6.8380 H   0  0  0  0  0  0  0  0  0  0  0  0
   58.8497  155.1679   -6.9712 H   0  0  0  0  0  0  0  0  0  0  0  0
   58.6116  156.6434   -6.0090 H   0  0  0  0  0  0  0  0  0  0  0  0
   57.8142  156.4745   -7.5879 H   0  0  0  0  0  0  0  0  0  0  0  0
   54.8398  157.7333   -5.2117 H   0  0  0  0  0  0  0  0  0  0  0  0
   56.3898  157.9128   -6.0042 H   0  0  0  0  0  0  0  0  0  0  0  0
   53.0813  156.2555   -6.1958 H   0  0  0  0  0  0  0  0  0  0  0  0
   51.8582  156.3036   -4.9477 H   0  0  0  0  0  0  0  0  0  0  0  0
  1  2  2  0  0  0  0
  1  3  1  0  0  0  0
  1  4  1  0  0  0  0
  2  7  1  0  0  0  0
  2  8  1  0  0  0  0
  3  5  1  0  0  0  0
  3 10  2  0  0  0  0
  4  9  1  0  0  0  0
  4 11  2  0  0  0  0
  5  7  1  0  0  0  0
  6  7  1  0  0  0  0
  5 12  1  0  0  0  0
  5 13  1  0  0  0  0
  6 14  1  0  0  0  0
  6 15  1  0  0  0  0
  6 16  1  0  0  0  0
  8 17  1  0  0  0  0
  8 18  1  0  0  0  0
  9 19  1  0  0  0  0
  9 20  1  0  0  0  0
M  END
> <FRED Chemgauss4 score>
-5.799391

$$$$
C90205859	P141011823
  -OEChem-05122015083D

 46 47  0     1  0  0  0  0  0999 V2000
   57.8637  159.5437   -0.8376 C   0  0  0  0  0  0  0  0  0  0  0  0
   55.5083  159.1907   -0.4318 C   0  0  0  0  0  0  0  0  0  0  0  0
   57.9816  160.1784    0.3988 C   0  0  0  0  0  0  0  0  0  0  0  0
   55.6262  159.8254    0.8047 C   0  0  0  0  0  0  0  0  0  0  0  0
   57.2434  157.1157   -5.2033 C   0  0  0  0  0  0  0  0  0  0  0  0
   57.1583  155.0663   -6.0359 C   0  0  0  0  0  0  0  0  0  0  0  0
   56.6270  159.0499   -1.2529 C   0  0  0  0  0  0  0  0  0  0  0  0
   56.8629  160.3192    1.2200 C   0  0  0  0  0  0  0  0  0  0  0  0
   56.0762  156.5398   -4.7876 C   0  0  0  0  0  0  0  0  0  0  0  0
   54.4974  154.2077   -7.6050 C   0  0  0  0  0  0  0  0  0  0  0  0
   55.9442  156.1156   -1.9544 C   0  0  0  0  0  0  0  0  0  0  0  0
   56.5000  158.3667   -2.5839 C   0  0  0  0  0  0  0  0  0  0  0  0
   54.8313  153.3964   -6.3639 C   0  0  0  0  0  0  0  0  0  0  0  0
   54.9946  154.2945   -5.1398 C   0  0  0  0  0  0  0  0  0  0  0  0
   54.3377  158.3413   -4.5401 C   0  0  0  0  0  0  0  0  0  0  0  0
   54.9637  157.0904   -3.9193 C   0  0  2  0  0  0  0  0  0  0  0  0
   56.0495  155.2724   -5.3178 N   0  0  0  0  0  0  0  0  0  0  0  0
   57.8930  156.1815   -5.9737 N   0  3  0  0  0  0  0  0  0  0  0  0
   55.4444  157.3465   -2.5793 N   0  0  1  0  0  0  0  0  0  0  0  0
   53.7365  157.9984   -5.8547 N   0  3  0  0  0  0  0  0  0  0  0  0
   57.0234  161.1798    2.8949 Br  0  0  0  0  0  0  0  0  0  0  0  0
   58.7407  159.4383   -1.4708 H   0  0  0  0  0  0  0  0  0  0  0  0
   54.5406  158.8099   -0.7475 H   0  0  0  0  0  0  0  0  0  0  0  0
   58.9524  160.5584    0.7070 H   0  0  0  0  0  0  0  0  0  0  0  0
   54.7451  159.9268    1.4327 H   0  0  0  0  0  0  0  0  0  0  0  0
   57.7229  158.0650   -5.0678 H   0  0  0  0  0  0  0  0  0  0  0  0
   57.4189  154.1672   -6.5703 H   0  0  0  0  0  0  0  0  0  0  0  0
   55.2738  154.9523   -7.8073 H   0  0  0  0  0  0  0  0  0  0  0  0
   53.5479  154.7349   -7.4694 H   0  0  0  0  0  0  0  0  0  0  0  0
   54.4043  153.5606   -8.4831 H   0  0  0  0  0  0  0  0  0  0  0  0
   55.1615  155.3526   -1.9486 H   0  0  0  0  0  0  0  0  0  0  0  0
   56.2512  156.3127   -0.9237 H   0  0  0  0  0  0  0  0  0  0  0  0
   56.8049  155.7327   -2.5093 H   0  0  0  0  0  0  0  0  0  0  0  0
   56.2641  159.0927   -3.3695 H   0  0  0  0  0  0  0  0  0  0  0  0
   57.4381  157.8766   -2.8650 H   0  0  0  0  0  0  0  0  0  0  0  0
   54.0368  152.6613   -6.1885 H   0  0  0  0  0  0  0  0  0  0  0  0
   55.7528  152.8286   -6.5403 H   0  0  0  0  0  0  0  0  0  0  0  0
   55.2353  153.7038   -4.2479 H   0  0  0  0  0  0  0  0  0  0  0  0
   54.0678  154.8399   -4.9253 H   0  0  0  0  0  0  0  0  0  0  0  0
   53.5298  158.7591   -3.9306 H   0  0  0  0  0  0  0  0  0  0  0  0
   55.0829  159.1197   -4.7339 H   0  0  0  0  0  0  0  0  0  0  0  0
   54.1855  156.3249   -3.8060 H   0  0  0  0  0  0  0  0  0  0  0  0
   58.7926  156.3149   -6.4269 H   0  0  0  0  0  0  0  0  0  0  0  0
   53.9013  158.7449   -6.5371 H   0  0  0  0  0  0  0  0  0  0  0  0
   52.7239  157.8647   -5.7683 H   0  0  0  0  0  0  0  0  0  0  0  0
   54.1410  157.1331   -6.2262 H   0  0  0  0  0  0  0  0  0  0  0  0
  1  3  2  0  0  0  0
  1  7  1  0  0  0  0
  2  4  1  0  0  0  0
  2  7  2  0  0  0  0
  3  8  1  0  0  0  0
  4  8  2  0  0  0  0
  5  9  2  0  0  0  0
  5 18  1  0  0  0  0
  6 17  1  0  0  0  0
  6 18  2  0  0  0  0
  7 12  1  0  0  0  0
  8 21  1  0  0  0  0
  9 16  1  0  0  0  0
  9 17  1  0  0  0  0
 10 13  1  0  0  0  0
 11 19  1  0  0  0  0
 12 19  1  0  0  0  0
 13 14  1  0  0  0  0
 14 17  1  0  0  0  0
 15 16  1  0  0  0  0
 15 20  1  0  0  0  0
 16 19  1  0  0  0  0
  1 22  1  0  0  0  0
  2 23  1  0  0  0  0
  3 24  1  0  0  0  0
  4 25  1  0  0  0  0
  5 26  1  0  0  0  0
  6 27  1  0  0  0  0
 10 28  1  0  0  0  0
 10 29  1  0  0  0  0
 10 30  1  0  0  0  0
 11 31  1  0  0  0  0
 11 32  1  0  0  0  0
 11 33  1  0  0  0  0
 12 34  1  0  0  0  0
 12 35  1  0  0  0  0
 13 36  1  0  0  0  0
 13 37  1  0  0  0  0
 14 38  1  0  0  0  0
 14 39  1  0  0  0  0
 15 40  1  0  0  0  0
 15 41  1  0  0  0  0
 16 42  1  0  0  0  0
 18 43  1  0  0  0  0
 20 44  1  0  0  0  0
 20 45  1  0  0  0  0
 20 46  1  0  0  0  0
M  CHG  2  18   1  20   1
M  END
> <FRED Chemgauss4 score>
-5.799100

$$$$
C36827785	P54736345
  -OEChem-05122015083D

 28 29  0     1  0  0  0  0  0999 V2000
   55.7493  156.4321   -4.4133 C   0  0  0  0  0  0  0  0  0  0  0  0
   57.4996  156.6888   -5.7018 C   0  0  0  0  0  0  0  0  0  0  0  0
   57.3557  154.1275   -6.7736 C   0  0  0  0  0  0  0  0  0  0  0  0
   56.4372  154.4945   -5.8648 C   0  0  0  0  0  0  0  0  0  0  0  0
   58.3837  155.1596   -7.1215 C   0  0  0  0  0  0  0  0  0  0  0  0
   55.3619  153.5383   -5.4434 C   0  0  0  0  0  0  0  0  0  0  0  0
   59.4252  154.7679   -8.1402 C   0  0  0  0  0  0  0  0  0  0  0  0
   53.2362  156.1164   -4.4658 C   0  0  0  0  0  0  0  0  0  0  0  0
   54.5722  155.8617   -3.7309 C   0  0  2  0  0  0  0  0  0  0  0  0
   56.2085  157.6461   -4.2204 N   0  0  0  0  0  0  0  0  0  0  0  0
   57.3090  157.8085   -5.0301 N   0  0  0  0  0  0  0  0  0  0  0  0
   58.4506  156.3589   -6.6193 N   0  0  0  0  0  0  0  0  0  0  0  0
   56.5199  155.7799   -5.3353 N   0  0  0  0  0  0  0  0  0  0  0  0
   54.4322  156.3439   -2.3585 N   0  0  0  0  0  0  0  0  0  0  0  0
   53.0103  157.5139   -4.6197 O   0  0  0  0  0  0  0  0  0  0  0  0
   57.3832  153.1549   -7.2468 H   0  0  0  0  0  0  0  0  0  0  0  0
   55.7056  152.9581   -4.5899 H   0  0  0  0  0  0  0  0  0  0  0  0
   55.1267  152.8686   -6.2682 H   0  0  0  0  0  0  0  0  0  0  0  0
   54.4676  154.0944   -5.1698 H   0  0  0  0  0  0  0  0  0  0  0  0
   59.0656  155.0244   -9.1310 H   0  0  0  0  0  0  0  0  0  0  0  0
   59.6017  153.6993   -8.0743 H   0  0  0  0  0  0  0  0  0  0  0  0
   60.3458  155.3021   -7.9292 H   0  0  0  0  0  0  0  0  0  0  0  0
   53.2686  155.6738   -5.4674 H   0  0  0  0  0  0  0  0  0  0  0  0
   52.3877  155.6890   -3.9204 H   0  0  0  0  0  0  0  0  0  0  0  0
   54.6689  154.7616   -3.6122 H   0  0  0  0  0  0  0  0  0  0  0  0
   55.2619  156.4844   -1.8249 H   0  0  0  0  0  0  0  0  0  0  0  0
   53.5263  156.3191   -1.9440 H   0  0  0  0  0  0  0  0  0  0  0  0
   52.1637  157.6086   -5.0839 H   0  0  0  0  0  0  0  0  0  0  0  0
  1  9  1  0  0  0  0
  1 10  2  0  0  0  0
  1 13  1  0  0  0  0
  2 11  2  0  0  0  0
  2 12  1  0  0  0  0
  2 13  1  0  0  0  0
  3  4  2  0  0  0  0
  3  5  1  0  0  0  0
  4  6  1  0  0  0  0
  4 13  1  0  0  0  0
  5  7  1  0  0  0  0
  5 12  2  0  0  0  0
  8  9  1  0  0  0  0
  8 15  1  0  0  0  0
  9 14  1  0  0  0  0
 10 11  1  0  0  0  0
  3 16  1  0  0  0  0
  6 17  1  0  0  0  0
  6 18  1  0  0  0  0
  6 19  1  0  0  0  0
  7 20  1  0  0  0  0
  7 21  1  0  0  0  0
  7 22  1  0  0  0  0
  8 23  1  0  0  0  0
  8 24  1  0  0  0  0
  9 25  1  0  0  0  0
 14 26  1  0  0  0  0
 14 27  1  0  0  0  0
 15 28  1  0  0  0  0
M  END
> <FRED Chemgauss4 score>
-5.798709

$$$$
C65742667	P101141789
  -OEChem-05122015083D

 27 27  0     1  0  0  0  0  0999 V2000
   53.6158  156.1108   -3.3527 C   0  0  2  0  0  0  0  0  0  0  0  0
   53.6705  155.4454   -4.7354 C   0  0  1  0  0  0  0  0  0  0  0  0
   54.9414  156.8080   -3.0077 C   0  0  1  0  0  0  0  0  0  0  0  0
   55.0987  154.9815   -5.0392 C   0  0  1  0  0  0  0  0  0  0  0  0
   55.7330  157.2120   -4.2618 C   0  0  1  0  0  0  0  0  0  0  0  0
   55.2143  154.2402   -6.3674 C   0  0  0  0  0  0  0  0  0  0  0  0
   57.0849  157.8231   -3.8902 C   0  0  0  0  0  0  0  0  0  0  0  0
   56.0197  156.0795   -5.0953 O   0  0  0  0  0  0  0  0  0  0  0  0
   53.3753  155.1173   -2.3504 O   0  0  0  0  0  0  0  0  0  0  0  0
   52.7290  154.3826   -4.7946 O   0  0  0  0  0  0  0  0  0  0  0  0
   54.6779  157.9512   -2.1985 O   0  0  0  0  0  0  0  0  0  0  0  0
   55.0446  158.2234   -5.0050 O   0  0  0  0  0  0  0  0  0  0  0  0
   56.5663  153.8663   -6.5577 O   0  0  0  0  0  0  0  0  0  0  0  0
   57.7308  158.1323   -5.0373 F   0  0  0  0  0  0  0  0  0  0  0  0
   52.7869  156.8205   -3.2871 H   0  0  0  0  0  0  0  0  0  0  0  0
   53.3379  156.1999   -5.4943 H   0  0  0  0  0  0  0  0  0  0  0  0
   55.5453  156.1159   -2.3822 H   0  0  0  0  0  0  0  0  0  0  0  0
   55.4638  154.3363   -4.2750 H   0  0  0  0  0  0  0  0  0  0  0  0
   54.9014  154.8906   -7.1839 H   0  0  0  0  0  0  0  0  0  0  0  0
   54.5917  153.3461   -6.3491 H   0  0  0  0  0  0  0  0  0  0  0  0
   57.6787  157.1073   -3.3304 H   0  0  0  0  0  0  0  0  0  0  0  0
   56.9394  158.7289   -3.3097 H   0  0  0  0  0  0  0  0  0  0  0  0
   53.3496  155.5840   -1.5011 H   0  0  0  0  0  0  0  0  0  0  0  0
   51.8627  154.7830   -4.6363 H   0  0  0  0  0  0  0  0  0  0  0  0
   54.2380  157.6263   -1.3980 H   0  0  0  0  0  0  0  0  0  0  0  0
   55.6007  158.4229   -5.7726 H   0  0  0  0  0  0  0  0  0  0  0  0
   56.6160  153.3967   -7.4078 H   0  0  0  0  0  0  0  0  0  0  0  0
  1  2  1  0  0  0  0
  1  3  1  0  0  0  0
  1  9  1  0  0  0  0
  2  4  1  0  0  0  0
  2 10  1  0  0  0  0
  3  5  1  0  0  0  0
  3 11  1  0  0  0  0
  4  6  1  0  0  0  0
  4  8  1  0  0  0  0
  5  7  1  0  0  0  0
  5  8  1  0  0  0  0
  5 12  1  0  0  0  0
  6 13  1  0  0  0  0
  7 14  1  0  0  0  0
  1 15  1  0  0  0  0
  2 16  1  0  0  0  0
  3 17  1  0  0  0  0
  4 18  1  0  0  0  0
  6 19  1  0  0  0  0
  6 20  1  0  0  0  0
  7 21  1  0  0  0  0
  7 22  1  0  0  0  0
  9 23  1  0  0  0  0
 10 24  1  0  0  0  0
 11 25  1  0  0  0  0
 12 26  1  0  0  0  0
 13 27  1  0  0  0  0
M  END
> <FRED Chemgauss4 score>
-5.797029

$$$$
C20546222	P30637893
  -OEChem-05122015083D

 37 38  0     1  0  0  0  0  0999 V2000
   57.0297  160.3660   -3.3514 C   0  0  0  0  0  0  0  0  0  0  0  0
   56.4687  159.1401   -2.9938 C   0  0  0  0  0  0  0  0  0  0  0  0
   58.0026  160.4233   -4.3493 C   0  0  0  0  0  0  0  0  0  0  0  0
   57.8538  158.0286   -4.6319 C   0  0  0  0  0  0  0  0  0  0  0  0
   56.8808  157.9713   -3.6340 C   0  0  0  0  0  0  0  0  0  0  0  0
   58.4147  159.2546   -4.9895 C   0  0  0  0  0  0  0  0  0  0  0  0
   53.4001  157.6533   -6.2344 C   0  0  0  0  0  0  0  0  0  0  0  0
   54.7527  156.9545   -6.0978 C   0  0  0  0  0  0  0  0  0  0  0  0
   52.2730  156.6591   -6.4574 C   0  0  0  0  0  0  0  0  0  0  0  0
   53.5625  154.8785   -5.2560 C   0  0  0  0  0  0  0  0  0  0  0  0
   54.7375  155.8294   -5.0606 C   0  0  2  0  0  0  0  0  0  0  0  0
   56.3355  156.7806   -3.2855 N   0  5  0  0  0  0  0  0  0  0  0  0
   58.6602  159.5510   -7.6271 N   0  0  0  0  0  0  0  0  0  0  0  0
   52.2852  155.6472   -5.3608 N   0  3  0  0  0  0  0  0  0  0  0  0
   60.4343  160.5242   -6.0299 O   0  0  0  0  0  0  0  0  0  0  0  0
   60.2815  158.0272   -6.3285 O   0  0  0  0  0  0  0  0  0  0  0  0
   53.9078  157.6447   -3.4726 O   0  0  0  0  0  0  0  0  0  0  0  0
   54.2874  155.3658   -2.5933 O   0  0  0  0  0  0  0  0  0  0  0  0
   59.6319  159.3274   -6.2396 S   0  0  0  0  0  0  0  0  0  0  0  0
   54.7811  156.4748   -3.4069 S   0  0  0  0  0  0  0  0  0  0  0  0
   56.7091  161.2762   -2.8527 H   0  0  0  0  0  0  0  0  0  0  0  0
   55.7113  159.1155   -2.2131 H   0  0  0  0  0  0  0  0  0  0  0  0
   58.4332  161.3839   -4.6199 H   0  0  0  0  0  0  0  0  0  0  0  0
   58.1809  157.1211   -5.1360 H   0  0  0  0  0  0  0  0  0  0  0  0
   53.1970  158.2455   -5.3342 H   0  0  0  0  0  0  0  0  0  0  0  0
   53.4366  158.3602   -7.0710 H   0  0  0  0  0  0  0  0  0  0  0  0
   55.0214  156.5272   -7.0726 H   0  0  0  0  0  0  0  0  0  0  0  0
   55.5237  157.6953   -5.8556 H   0  0  0  0  0  0  0  0  0  0  0  0
   51.2951  157.1486   -6.4301 H   0  0  0  0  0  0  0  0  0  0  0  0
   52.3801  156.1181   -7.4033 H   0  0  0  0  0  0  0  0  0  0  0  0
   53.6622  154.3060   -6.1844 H   0  0  0  0  0  0  0  0  0  0  0  0
   53.4436  154.1828   -4.4196 H   0  0  0  0  0  0  0  0  0  0  0  0
   55.6699  155.2582   -5.1465 H   0  0  0  0  0  0  0  0  0  0  0  0
   58.0986  158.7558   -7.9553 H   0  0  0  0  0  0  0  0  0  0  0  0
   58.2034  160.4623   -7.7538 H   0  0  0  0  0  0  0  0  0  0  0  0
   52.0830  156.1094   -4.4637 H   0  0  0  0  0  0  0  0  0  0  0  0
   51.5101  154.9862   -5.5077 H   0  0  0  0  0  0  0  0  0  0  0  0
  1  2  1  0  0  0  0
  1  3  2  0  0  0  0
  2  5  2  0  0  0  0
  3  6  1  0  0  0  0
  4  5  1  0  0  0  0
  4  6  2  0  0  0  0
  5 12  1  0  0  0  0
  6 19  1  0  0  0  0
  7  8  1  0  0  0  0
  7  9  1  0  0  0  0
  8 11  1  0  0  0  0
  9 14  1  0  0  0  0
 10 11  1  0  0  0  0
 10 14  1  0  0  0  0
 11 20  1  0  0  0  0
 12 20  1  0  0  0  0
 13 19  1  0  0  0  0
 15 19  2  0  0  0  0
 16 19  2  0  0  0  0
 17 20  2  0  0  0  0
 18 20  2  0  0  0  0
  1 21  1  0  0  0  0
  2 22  1  0  0  0  0
  3 23  1  0  0  0  0
  4 24  1  0  0  0  0
  7 25  1  0  0  0  0
  7 26  1  0  0  0  0
  8 27  1  0  0  0  0
  8 28  1  0  0  0  0
  9 29  1  0  0  0  0
  9 30  1  0  0  0  0
 10 31  1  0  0  0  0
 10 32  1  0  0  0  0
 11 33  1  0  0  0  0
 13 34  1  0  0  0  0
 13 35  1  0  0  0  0
 14 36  1  0  0  0  0
 14 37  1  0  0  0  0
M  CHG  2  12  -1  14   1
M  END
> <FRED Chemgauss4 score>
-5.795969

$$$$
C83142747	P129966553
  -OEChem-05122015083D

 29 30  0     1  0  0  0  0  0999 V2000
   59.9468  160.2929   -2.9833 C   0  0  0  0  0  0  0  0  0  0  0  0
   55.5759  159.0497   -1.6672 C   0  0  0  0  0  0  0  0  0  0  0  0
   59.7333  161.1908   -1.9584 C   0  0  0  0  0  0  0  0  0  0  0  0
   56.7105  158.9449   -2.4367 C   0  0  0  0  0  0  0  0  0  0  0  0
   57.9209  159.6719   -2.4177 C   0  0  0  0  0  0  0  0  0  0  0  0
   55.1929  157.4621   -3.0322 C   0  0  0  0  0  0  0  0  0  0  0  0
   55.1057  154.3688   -5.3868 C   0  0  0  0  0  0  0  0  0  0  0  0
   55.4628  156.7081   -6.1772 C   0  0  0  0  0  0  0  0  0  0  0  0
   54.5818  156.3184   -3.8219 C   0  0  2  0  0  0  0  0  0  0  0  0
   55.5007  155.7855   -4.9507 C   0  0  0  0  0  0  0  0  0  0  0  0
   58.9089  159.4209   -3.2478 N   0  0  0  0  0  0  0  0  0  0  0  0
   54.6352  158.1236   -2.0426 N   0  0  0  0  0  0  0  0  0  0  0  0
   56.4504  157.9234   -3.3063 N   0  0  0  0  0  0  0  0  0  0  0  0
   53.3045  156.7708   -4.3303 N   0  0  0  0  0  0  0  0  0  0  0  0
   58.1721  160.9435   -1.2930 S   0  0  0  0  0  0  0  0  0  0  0  0
   60.8506  160.2306   -3.5737 H   0  0  0  0  0  0  0  0  0  0  0  0
   55.3830  159.7439   -0.8614 H   0  0  0  0  0  0  0  0  0  0  0  0
   60.3976  161.9558   -1.5827 H   0  0  0  0  0  0  0  0  0  0  0  0
   54.0725  154.3398   -5.7494 H   0  0  0  0  0  0  0  0  0  0  0  0
   55.7564  154.0159   -6.1944 H   0  0  0  0  0  0  0  0  0  0  0  0
   55.1986  153.6541   -4.5632 H   0  0  0  0  0  0  0  0  0  0  0  0
   54.4486  156.7861   -6.5833 H   0  0  0  0  0  0  0  0  0  0  0  0
   56.1155  156.3268   -6.9701 H   0  0  0  0  0  0  0  0  0  0  0  0
   55.8093  157.7162   -5.9289 H   0  0  0  0  0  0  0  0  0  0  0  0
   54.3444  155.4870   -3.1453 H   0  0  0  0  0  0  0  0  0  0  0  0
   56.5402  155.7542   -4.5986 H   0  0  0  0  0  0  0  0  0  0  0  0
   57.0713  157.5737   -4.0246 H   0  0  0  0  0  0  0  0  0  0  0  0
   52.7649  157.4108   -3.7776 H   0  0  0  0  0  0  0  0  0  0  0  0
   52.8979  156.2883   -5.1103 H   0  0  0  0  0  0  0  0  0  0  0  0
  1  3  2  0  0  0  0
  1 11  1  0  0  0  0
  2  4  2  0  0  0  0
  2 12  1  0  0  0  0
  3 15  1  0  0  0  0
  4  5  1  0  0  0  0
  4 13  1  0  0  0  0
  5 11  2  0  0  0  0
  5 15  1  0  0  0  0
  6  9  1  0  0  0  0
  6 12  2  0  0  0  0
  6 13  1  0  0  0  0
  7 10  1  0  0  0  0
  8 10  1  0  0  0  0
  9 10  1  0  0  0  0
  9 14  1  0  0  0  0
  1 16  1  0  0  0  0
  2 17  1  0  0  0  0
  3 18  1  0  0  0  0
  7 19  1  0  0  0  0
  7 20  1  0  0  0  0
  7 21  1  0  0  0  0
  8 22  1  0  0  0  0
  8 23  1  0  0  0  0
  8 24  1  0  0  0  0
  9 25  1  0  0  0  0
 10 26  1  0  0  0  0
 13 27  1  0  0  0  0
 14 28  1  0  0  0  0
 14 29  1  0  0  0  0
M  END
> <FRED Chemgauss4 score>
-5.793295

$$$$
C39134825	P59289426
  -OEChem-05122015083D

 20 20  0     1  0  0  0  0  0999 V2000
   56.1703  153.5703   -5.5510 C   0  0  0  0  0  0  0  0  0  0  0  0
   56.2569  154.5642   -6.5032 C   0  0  0  0  0  0  0  0  0  0  0  0
   54.5074  154.8267   -4.8684 C   0  0  0  0  0  0  0  0  0  0  0  0
   54.0072  157.7153   -3.3474 C   0  0  0  0  0  0  0  0  0  0  0  0
   53.3324  155.3318   -4.0552 C   0  0  1  0  0  0  0  0  0  0  0  0
   53.7626  156.2717   -2.9098 C   0  0  2  0  0  0  0  0  0  0  0  0
   55.1679  153.7193   -4.6125 N   0  0  0  0  0  0  0  0  0  0  0  0
   52.7650  156.2505   -1.8601 N   0  0  0  0  0  0  0  0  0  0  0  0
   52.3783  155.9711   -4.9028 O   0  0  0  0  0  0  0  0  0  0  0  0
   55.0376  155.7372   -6.2230 S   0  0  0  0  0  0  0  0  0  0  0  0
   56.8194  152.7067   -5.4960 H   0  0  0  0  0  0  0  0  0  0  0  0
   56.9540  154.6528   -7.3244 H   0  0  0  0  0  0  0  0  0  0  0  0
   53.1203  158.1467   -3.8202 H   0  0  0  0  0  0  0  0  0  0  0  0
   54.8248  157.7609   -4.0758 H   0  0  0  0  0  0  0  0  0  0  0  0
   54.2929  158.3514   -2.5028 H   0  0  0  0  0  0  0  0  0  0  0  0
   52.8184  154.4553   -3.6384 H   0  0  0  0  0  0  0  0  0  0  0  0
   54.6794  155.8900   -2.4444 H   0  0  0  0  0  0  0  0  0  0  0  0
   52.7261  157.0194   -1.2177 H   0  0  0  0  0  0  0  0  0  0  0  0
   52.2805  155.3925   -1.6742 H   0  0  0  0  0  0  0  0  0  0  0  0
   51.6574  156.2693   -4.3278 H   0  0  0  0  0  0  0  0  0  0  0  0
  1  2  2  0  0  0  0
  1  7  1  0  0  0  0
  2 10  1  0  0  0  0
  3  5  1  0  0  0  0
  3  7  2  0  0  0  0
  3 10  1  0  0  0  0
  4  6  1  0  0  0  0
  5  6  1  0  0  0  0
  5  9  1  0  0  0  0
  6  8  1  0  0  0  0
  1 11  1  0  0  0  0
  2 12  1  0  0  0  0
  4 13  1  0  0  0  0
  4 14  1  0  0  0  0
  4 15  1  0  0  0  0
  5 16  1  0  0  0  0
  6 17  1  0  0  0  0
  8 18  1  0  0  0  0
  8 19  1  0  0  0  0
  9 20  1  0  0  0  0
M  END
> <FRED Chemgauss4 score>
-5.792295

$$$$
C26574468	P151033270
  -OEChem-05122015083D

 23 23  0     1  0  0  0  0  0999 V2000
   54.8032  155.0699   -4.8067 C   0  0  2  0  0  0  0  0  0  0  0  0
   53.3526  155.1256   -4.2551 C   0  0  1  0  0  0  0  0  0  0  0  0
   55.5388  156.1782   -4.0446 C   0  0  2  0  0  0  0  0  0  0  0  0
   53.4977  155.7266   -2.8365 C   0  0  2  0  0  0  0  0  0  0  0  0
   54.9973  155.9670   -2.6341 C   0  0  2  0  0  0  0  0  0  0  0  0
   54.9451  155.1303   -6.3222 C   0  0  0  0  0  0  0  0  0  0  0  0
   52.4452  155.9738   -5.0285 N   0  0  0  0  0  0  0  0  0  0  0  0
   55.1800  157.4690   -4.5209 O   0  0  0  0  0  0  0  0  0  0  0  0
   53.0140  154.8024   -1.8693 O   0  0  0  0  0  0  0  0  0  0  0  0
   55.2464  157.0882   -1.8062 O   0  0  0  0  0  0  0  0  0  0  0  0
   55.2294  154.1037   -4.4830 H   0  0  0  0  0  0  0  0  0  0  0  0
   52.9269  154.1161   -4.2227 H   0  0  0  0  0  0  0  0  0  0  0  0
   56.6278  156.0814   -4.0896 H   0  0  0  0  0  0  0  0  0  0  0  0
   52.9257  156.6541   -2.7103 H   0  0  0  0  0  0  0  0  0  0  0  0
   55.4714  155.0920   -2.1683 H   0  0  0  0  0  0  0  0  0  0  0  0
   54.5379  156.0692   -6.6975 H   0  0  0  0  0  0  0  0  0  0  0  0
   54.4047  154.3020   -6.7804 H   0  0  0  0  0  0  0  0  0  0  0  0
   55.9968  155.0642   -6.6010 H   0  0  0  0  0  0  0  0  0  0  0  0
   51.6622  156.3690   -4.5578 H   0  0  0  0  0  0  0  0  0  0  0  0
   52.5253  155.9582   -6.0207 H   0  0  0  0  0  0  0  0  0  0  0  0
   55.4235  157.4981   -5.4601 H   0  0  0  0  0  0  0  0  0  0  0  0
   53.5516  153.9991   -1.9577 H   0  0  0  0  0  0  0  0  0  0  0  0
   56.2107  157.2088   -1.7714 H   0  0  0  0  0  0  0  0  0  0  0  0
  1  2  1  0  0  0  0
  1  3  1  0  0  0  0
  1  6  1  0  0  0  0
  2  4  1  0  0  0  0
  2  7  1  0  0  0  0
  3  5  1  0  0  0  0
  3  8  1  0  0  0  0
  4  5  1  0  0  0  0
  4  9  1  0  0  0  0
  5 10  1  0  0  0  0
  1 11  1  0  0  0  0
  2 12  1  0  0  0  0
  3 13  1  0  0  0  0
  4 14  1  0  0  0  0
  5 15  1  0  0  0  0
  6 16  1  0  0  0  0
  6 17  1  0  0  0  0
  6 18  1  0  0  0  0
  7 19  1  0  0  0  0
  7 20  1  0  0  0  0
  8 21  1  0  0  0  0
  9 22  1  0  0  0  0
 10 23  1  0  0  0  0
M  END
> <FRED Chemgauss4 score>
-5.790793

$$$$
C95641616	P150394477
  -OEChem-05122015083D

 21 21  0     1  0  0  0  0  0999 V2000
   56.4226  153.4371   -6.3495 C   0  0  0  0  0  0  0  0  0  0  0  0
   55.2843  153.7609   -5.6196 C   0  0  0  0  0  0  0  0  0  0  0  0
   57.2466  154.4729   -6.7594 C   0  0  0  0  0  0  0  0  0  0  0  0
   55.0086  155.0918   -5.3261 C   0  0  0  0  0  0  0  0  0  0  0  0
   55.8960  156.0534   -5.7817 C   0  0  0  0  0  0  0  0  0  0  0  0
   54.0720  156.1574   -3.2039 C   0  0  0  0  0  0  0  0  0  0  0  0
   53.7644  155.4401   -4.5277 C   0  0  1  0  0  0  0  0  0  0  0  0
   57.0118  155.7774   -6.4934 N   0  0  0  0  0  0  0  0  0  0  0  0
   52.9914  156.0389   -2.2600 N   0  0  0  0  0  0  0  0  0  0  0  0
   52.8425  156.2563   -5.3267 N   0  0  0  0  0  0  0  0  0  0  0  0
   55.6632  157.7317   -5.4852 Cl  0  0  0  0  0  0  0  0  0  0  0  0
   56.6578  152.4064   -6.5894 H   0  0  0  0  0  0  0  0  0  0  0  0
   54.6190  152.9699   -5.2844 H   0  0  0  0  0  0  0  0  0  0  0  0
   58.1465  154.2734   -7.3316 H   0  0  0  0  0  0  0  0  0  0  0  0
   54.9525  155.7167   -2.7226 H   0  0  0  0  0  0  0  0  0  0  0  0
   54.2699  157.2257   -3.3420 H   0  0  0  0  0  0  0  0  0  0  0  0
   53.2362  154.5077   -4.2891 H   0  0  0  0  0  0  0  0  0  0  0  0
   52.8944  156.7328   -1.5370 H   0  0  0  0  0  0  0  0  0  0  0  0
   52.4801  155.1731   -2.2073 H   0  0  0  0  0  0  0  0  0  0  0  0
   52.1700  156.8026   -4.8406 H   0  0  0  0  0  0  0  0  0  0  0  0
   52.7933  156.0755   -6.3023 H   0  0  0  0  0  0  0  0  0  0  0  0
  1  2  1  0  0  0  0
  1  3  2  0  0  0  0
  2  4  2  0  0  0  0
  3  8  1  0  0  0  0
  4  5  1  0  0  0  0
  4  7  1  0  0  0  0
  5  8  2  0  0  0  0
  5 11  1  0  0  0  0
  6  7  1  0  0  0  0
  6  9  1  0  0  0  0
  7 10  1  0  0  0  0
  1 12  1  0  0  0  0
  2 13  1  0  0  0  0
  3 14  1  0  0  0  0
  6 15  1  0  0  0  0
  6 16  1  0  0  0  0
  7 17  1  0  0  0  0
  9 18  1  0  0  0  0
  9 19  1  0  0  0  0
 10 20  1  0  0  0  0
 10 21  1  0  0  0  0
M  END
> <FRED Chemgauss4 score>
-5.785387

$$$$
C87229336	P136499715
  -OEChem-05122015083D

 30 31  0     1  0  0  0  0  0999 V2000
   55.8760  158.1789   -3.4729 C   0  0  0  0  0  0  0  0  0  0  0  0
   54.3946  156.9143   -4.3119 C   0  0  0  0  0  0  0  0  0  0  0  0
   59.1913  159.4972   -4.4209 C   0  0  0  0  0  0  0  0  0  0  0  0
   58.3719  158.3164   -3.9612 C   0  0  0  0  0  0  0  0  0  0  0  0
   58.1149  160.4807   -4.8098 C   0  0  0  0  0  0  0  0  0  0  0  0
   57.1656  158.9721   -3.2752 C   0  0  2  0  0  0  0  0  0  0  0  0
   57.4173  159.2289   -1.7841 C   0  0  0  0  0  0  0  0  0  0  0  0
   54.4153  154.6789   -5.4932 C   0  0  0  0  0  0  0  0  0  0  0  0
   53.6875  156.0164   -5.2224 C   0  0  1  0  0  0  0  0  0  0  0  0
   54.8613  158.1522   -2.5867 N   0  5  0  0  0  0  0  0  0  0  0  0
   55.6119  157.4225   -4.5467 N   0  0  0  0  0  0  0  0  0  0  0  0
   53.9028  157.3331   -3.1294 N   0  0  0  0  0  0  0  0  0  0  0  0
   52.2861  155.6487   -4.7779 N   0  3  0  0  0  0  0  0  0  0  0  0
   57.0267  160.2703   -3.9016 O   0  0  0  0  0  0  0  0  0  0  0  0
   59.8675  159.8873   -3.6555 H   0  0  0  0  0  0  0  0  0  0  0  0
   59.7891  159.2236   -5.2983 H   0  0  0  0  0  0  0  0  0  0  0  0
   58.1022  157.6402   -4.7818 H   0  0  0  0  0  0  0  0  0  0  0  0
   58.9609  157.7373   -3.2358 H   0  0  0  0  0  0  0  0  0  0  0  0
   58.4572  161.5131   -4.6883 H   0  0  0  0  0  0  0  0  0  0  0  0
   57.7697  160.3440   -5.8374 H   0  0  0  0  0  0  0  0  0  0  0  0
   58.3395  159.7955   -1.6532 H   0  0  0  0  0  0  0  0  0  0  0  0
   57.5063  158.2815   -1.2520 H   0  0  0  0  0  0  0  0  0  0  0  0
   56.5900  159.7971   -1.3582 H   0  0  0  0  0  0  0  0  0  0  0  0
   54.6332  154.1483   -4.5597 H   0  0  0  0  0  0  0  0  0  0  0  0
   53.8316  154.0046   -6.1299 H   0  0  0  0  0  0  0  0  0  0  0  0
   55.3694  154.8702   -5.9969 H   0  0  0  0  0  0  0  0  0  0  0  0
   53.5084  156.4819   -6.2189 H   0  0  0  0  0  0  0  0  0  0  0  0
   51.9151  156.3897   -4.1924 H   0  0  0  0  0  0  0  0  0  0  0  0
   52.3190  154.7817   -4.2516 H   0  0  0  0  0  0  0  0  0  0  0  0
   51.6958  155.5305   -5.5946 H   0  0  0  0  0  0  0  0  0  0  0  0
  1  6  1  0  0  0  0
  1 10  1  0  0  0  0
  1 11  2  0  0  0  0
  2  9  1  0  0  0  0
  2 11  1  0  0  0  0
  2 12  2  0  0  0  0
  3  4  1  0  0  0  0
  3  5  1  0  0  0  0
  4  6  1  0  0  0  0
  5 14  1  0  0  0  0
  6  7  1  0  0  0  0
  6 14  1  0  0  0  0
  8  9  1  0  0  0  0
  9 13  1  0  0  0  0
 10 12  1  0  0  0  0
  3 15  1  0  0  0  0
  3 16  1  0  0  0  0
  4 17  1  0  0  0  0
  4 18  1  0  0  0  0
  5 19  1  0  0  0  0
  5 20  1  0  0  0  0
  7 21  1  0  0  0  0
  7 22  1  0  0  0  0
  7 23  1  0  0  0  0
  8 24  1  0  0  0  0
  8 25  1  0  0  0  0
  8 26  1  0  0  0  0
  9 27  1  0  0  0  0
 13 28  1  0  0  0  0
 13 29  1  0  0  0  0
 13 30  1  0  0  0  0
M  CHG  2  10  -1  13   1
M  END
> <FRED Chemgauss4 score>
-5.782786

$$$$
C85542475	P133883331
  -OEChem-05122015083D

 27 28  0     1  0  0  0  0  0999 V2000
   54.3626  156.6474   -3.2384 C   0  0  0  0  0  0  0  0  0  0  0  0
   53.2198  155.7375   -3.4892 C   0  0  0  0  0  0  0  0  0  0  0  0
   56.1621  156.7474   -6.8429 C   0  0  0  0  0  0  0  0  0  0  0  0
   56.9387  157.8494   -6.1349 C   0  0  0  0  0  0  0  0  0  0  0  0
   55.5464  155.2466   -4.8817 C   0  0  0  0  0  0  0  0  0  0  0  0
   56.8079  157.0582   -3.7194 C   0  0  0  0  0  0  0  0  0  0  0  0
   56.5045  155.4901   -6.0514 C   0  0  2  0  0  0  0  0  0  0  0  0
   57.6511  157.1248   -4.9981 C   0  0  1  0  0  0  0  0  0  0  0  0
   55.5211  156.3839   -3.9558 N   0  0  0  0  0  0  0  0  0  0  0  0
   51.3159  155.4306   -4.8655 N   0  0  0  0  0  0  0  0  0  0  0  0
   52.4223  156.1799   -4.5183 N   0  0  0  0  0  0  0  0  0  0  0  0
   54.1623  157.5440   -2.4298 O   0  0  0  0  0  0  0  0  0  0  0  0
   53.0747  154.7289   -2.8133 O   0  0  0  0  0  0  0  0  0  0  0  0
   57.7973  155.7811   -5.4903 O   0  0  0  0  0  0  0  0  0  0  0  0
   55.0867  156.9439   -6.8933 H   0  0  0  0  0  0  0  0  0  0  0  0
   56.5282  156.6545   -7.8721 H   0  0  0  0  0  0  0  0  0  0  0  0
   57.6742  158.2727   -6.8291 H   0  0  0  0  0  0  0  0  0  0  0  0
   56.3022  158.6701   -5.7900 H   0  0  0  0  0  0  0  0  0  0  0  0
   54.5342  155.0311   -5.2401 H   0  0  0  0  0  0  0  0  0  0  0  0
   55.8883  154.3861   -4.2943 H   0  0  0  0  0  0  0  0  0  0  0  0
   57.3272  156.4608   -2.9608 H   0  0  0  0  0  0  0  0  0  0  0  0
   56.6495  158.0623   -3.3155 H   0  0  0  0  0  0  0  0  0  0  0  0
   56.5688  154.6035   -6.6891 H   0  0  0  0  0  0  0  0  0  0  0  0
   58.6364  157.5517   -4.7884 H   0  0  0  0  0  0  0  0  0  0  0  0
   50.5982  156.0869   -5.1705 H   0  0  0  0  0  0  0  0  0  0  0  0
   50.9643  155.0077   -4.0073 H   0  0  0  0  0  0  0  0  0  0  0  0
   52.6023  157.0327   -5.0394 H   0  0  0  0  0  0  0  0  0  0  0  0
  1  2  1  0  0  0  0
  1  9  1  0  0  0  0
  1 12  2  0  0  0  0
  2 11  1  0  0  0  0
  2 13  2  0  0  0  0
  3  4  1  0  0  0  0
  3  7  1  0  0  0  0
  4  8  1  0  0  0  0
  5  7  1  0  0  0  0
  5  9  1  0  0  0  0
  6  8  1  0  0  0  0
  6  9  1  0  0  0  0
  7 14  1  0  0  0  0
  8 14  1  0  0  0  0
 10 11  1  0  0  0  0
  3 15  1  0  0  0  0
  3 16  1  0  0  0  0
  4 17  1  0  0  0  0
  4 18  1  0  0  0  0
  5 19  1  0  0  0  0
  5 20  1  0  0  0  0
  6 21  1  0  0  0  0
  6 22  1  0  0  0  0
  7 23  1  0  0  0  0
  8 24  1  0  0  0  0
 10 25  1  0  0  0  0
 10 26  1  0  0  0  0
 11 27  1  0  0  0  0
M  END
> <FRED Chemgauss4 score>
-5.781178

$$$$
C95922804	P151023683
  -OEChem-05122015083D

 16 16  0     0  0  0  0  0  0999 V2000
   55.5221  155.4225   -4.9833 C   0  0  0  0  0  0  0  0  0  0  0  0
   54.1814  155.3236   -5.3427 C   0  0  0  0  0  0  0  0  0  0  0  0
   55.8670  155.7828   -3.6841 C   0  0  0  0  0  0  0  0  0  0  0  0
   53.2117  155.5898   -4.3865 C   0  0  0  0  0  0  0  0  0  0  0  0
   54.8547  156.0374   -2.7699 C   0  0  0  0  0  0  0  0  0  0  0  0
   53.5717  155.9348   -3.1427 N   0  3  0  0  0  0  0  0  0  0  0  0
   51.8488  155.4937   -4.7360 N   0  0  0  0  0  0  0  0  0  0  0  0
   55.1889  156.4037   -1.4497 N   0  0  0  0  0  0  0  0  0  0  0  0
   52.6495  156.1769   -2.2725 O   0  5  0  0  0  0  0  0  0  0  0  0
   56.2979  155.2188   -5.7153 H   0  0  0  0  0  0  0  0  0  0  0  0
   53.9117  155.0425   -6.3563 H   0  0  0  0  0  0  0  0  0  0  0  0
   56.9130  155.8600   -3.4032 H   0  0  0  0  0  0  0  0  0  0  0  0
   51.6012  155.2809   -5.6812 H   0  0  0  0  0  0  0  0  0  0  0  0
   51.1534  155.7318   -4.0579 H   0  0  0  0  0  0  0  0  0  0  0  0
   56.1512  156.4286   -1.1788 H   0  0  0  0  0  0  0  0  0  0  0  0
   54.4575  156.5403   -0.7814 H   0  0  0  0  0  0  0  0  0  0  0  0
  1  2  1  0  0  0  0
  1  3  2  0  0  0  0
  2  4  2  0  0  0  0
  3  5  1  0  0  0  0
  4  6  1  0  0  0  0
  4  7  1  0  0  0  0
  5  6  2  0  0  0  0
  5  8  1  0  0  0  0
  6  9  1  0  0  0  0
  1 10  1  0  0  0  0
  2 11  1  0  0  0  0
  3 12  1  0  0  0  0
  7 13  1  0  0  0  0
  7 14  1  0  0  0  0
  8 15  1  0  0  0  0
  8 16  1  0  0  0  0
M  CHG  2   6   1   9  -1
M  END
> <FRED Chemgauss4 score>
-5.773488

$$$$
C70947713	P109519860
  -OEChem-05122015083D

 26 27  0     1  0  0  0  0  0999 V2000
   55.0508  155.7125   -4.3793 C   0  0  0  0  0  0  0  0  0  0  0  0
   55.6078  156.6725   -5.1229 C   0  0  0  0  0  0  0  0  0  0  0  0
   54.2633  156.0857   -3.1975 C   0  0  0  0  0  0  0  0  0  0  0  0
   54.8324  158.3604   -3.8643 C   0  0  0  0  0  0  0  0  0  0  0  0
   55.3272  154.3454   -4.8819 C   0  0  0  0  0  0  0  0  0  0  0  0
   56.3621  156.0942   -6.2721 C   0  0  0  0  0  0  0  0  0  0  0  0
   56.4469  154.6081   -5.8963 C   0  0  0  0  0  0  0  0  0  0  0  0
   56.0025  160.4854   -3.3241 C   0  0  0  0  0  0  0  0  0  0  0  0
   54.6609  159.8089   -3.5084 C   0  0  1  0  0  0  0  0  0  0  0  0
   55.5276  158.0195   -4.9087 N   0  0  0  0  0  0  0  0  0  0  0  0
   54.2066  157.4607   -3.0129 N   0  0  0  0  0  0  0  0  0  0  0  0
   53.9175  160.3647   -4.6014 N   0  0  0  0  0  0  0  0  0  0  0  0
   53.7290  155.2514   -2.4771 O   0  0  0  0  0  0  0  0  0  0  0  0
   55.6604  153.6641   -4.0939 H   0  0  0  0  0  0  0  0  0  0  0  0
   54.4403  153.9262   -5.3684 H   0  0  0  0  0  0  0  0  0  0  0  0
   55.8081  156.2359   -7.2060 H   0  0  0  0  0  0  0  0  0  0  0  0
   57.3606  156.5286   -6.3793 H   0  0  0  0  0  0  0  0  0  0  0  0
   57.4199  154.4019   -5.4309 H   0  0  0  0  0  0  0  0  0  0  0  0
   56.3663  153.9580   -6.7738 H   0  0  0  0  0  0  0  0  0  0  0  0
   56.6190  160.4153   -4.2277 H   0  0  0  0  0  0  0  0  0  0  0  0
   55.8701  161.5482   -3.0955 H   0  0  0  0  0  0  0  0  0  0  0  0
   56.5637  160.0242   -2.5047 H   0  0  0  0  0  0  0  0  0  0  0  0
   54.0499  159.8807   -2.6068 H   0  0  0  0  0  0  0  0  0  0  0  0
   53.6808  157.8127   -2.2178 H   0  0  0  0  0  0  0  0  0  0  0  0
   53.9232  161.3638   -4.7472 H   0  0  0  0  0  0  0  0  0  0  0  0
   53.2418  159.7901   -5.0838 H   0  0  0  0  0  0  0  0  0  0  0  0
  1  2  2  0  0  0  0
  1  3  1  0  0  0  0
  1  5  1  0  0  0  0
  2  6  1  0  0  0  0
  2 10  1  0  0  0  0
  3 11  1  0  0  0  0
  3 13  2  0  0  0  0
  4  9  1  0  0  0  0
  4 10  2  0  0  0  0
  4 11  1  0  0  0  0
  5  7  1  0  0  0  0
  6  7  1  0  0  0  0
  8  9  1  0  0  0  0
  9 12  1  0  0  0  0
  5 14  1  0  0  0  0
  5 15  1  0  0  0  0
  6 16  1  0  0  0  0
  6 17  1  0  0  0  0
  7 18  1  0  0  0  0
  7 19  1  0  0  0  0
  8 20  1  0  0  0  0
  8 21  1  0  0  0  0
  8 22  1  0  0  0  0
  9 23  1  0  0  0  0
 11 24  1  0  0  0  0
 12 25  1  0  0  0  0
 12 26  1  0  0  0  0
M  END
> <FRED Chemgauss4 score>
-5.772076

$$$$
C03640326	P46473025
  -OEChem-05122015083D

 16 16  0     0  0  0  0  0  0999 V2000
   55.7393  157.0892   -4.0347 C   0  0  0  0  0  0  0  0  0  0  0  0
   55.7870  155.7108   -3.9898 C   0  0  0  0  0  0  0  0  0  0  0  0
   54.7565  157.6780   -3.2655 C   0  0  0  0  0  0  0  0  0  0  0  0
   54.0313  155.6468   -2.5474 C   0  0  0  0  0  0  0  0  0  0  0  0
   54.6269  159.1640   -3.2502 C   0  0  0  0  0  0  0  0  0  0  0  0
   54.9454  154.9552   -3.2542 N   0  0  0  0  0  0  0  0  0  0  0  0
   53.8821  156.9846   -2.5072 N   0  0  0  0  0  0  0  0  0  0  0  0
   53.1331  154.8883   -1.7653 N   0  0  0  0  0  0  0  0  0  0  0  0
   54.3689  159.6289   -4.5693 O   0  0  0  0  0  0  0  0  0  0  0  0
   56.4323  157.6622   -4.6374 H   0  0  0  0  0  0  0  0  0  0  0  0
   56.5257  155.1591   -4.5614 H   0  0  0  0  0  0  0  0  0  0  0  0
   53.8052  159.4876   -2.5969 H   0  0  0  0  0  0  0  0  0  0  0  0
   55.5466  159.6384   -2.8821 H   0  0  0  0  0  0  0  0  0  0  0  0
   53.1781  153.8909   -1.8030 H   0  0  0  0  0  0  0  0  0  0  0  0
   52.4092  155.3592   -1.2626 H   0  0  0  0  0  0  0  0  0  0  0  0
   54.2920  160.5949   -4.5148 H   0  0  0  0  0  0  0  0  0  0  0  0
  1  2  1  0  0  0  0
  1  3  2  0  0  0  0
  2  6  2  0  0  0  0
  3  5  1  0  0  0  0
  3  7  1  0  0  0  0
  4  6  1  0  0  0  0
  4  7  2  0  0  0  0
  4  8  1  0  0  0  0
  5  9  1  0  0  0  0
  1 10  1  0  0  0  0
  2 11  1  0  0  0  0
  5 12  1  0  0  0  0
  5 13  1  0  0  0  0
  8 14  1  0  0  0  0
  8 15  1  0  0  0  0
  9 16  1  0  0  0  0
M  END
> <FRED Chemgauss4 score>
-5.766822

$$$$
C86491376	P135426479
  -OEChem-05122015083D

 23 24  0     0  0  0  0  0  0999 V2000
   57.0442  155.9935   -6.2211 C   0  0  0  0  0  0  0  0  0  0  0  0
   54.3520  156.2905   -4.3801 C   0  0  0  0  0  0  0  0  0  0  0  0
   59.1021  156.4353   -5.9047 C   0  0  0  0  0  0  0  0  0  0  0  0
   57.0642  157.2041   -5.5695 C   0  0  0  0  0  0  0  0  0  0  0  0
   53.6578  156.1394   -3.2061 C   0  0  0  0  0  0  0  0  0  0  0  0
   58.9507  158.6362   -4.7265 C   0  0  0  0  0  0  0  0  0  0  0  0
   55.9786  158.0977   -5.1310 C   0  0  0  0  0  0  0  0  0  0  0  0
   58.3159  155.5201   -6.4265 N   0  0  0  0  0  0  0  0  0  0  0  0
   53.9501  157.1753   -2.3629 N   0  0  0  0  0  0  0  0  0  0  0  0
   54.8121  157.9746   -2.9818 N   0  0  0  0  0  0  0  0  0  0  0  0
   55.0517  157.4424   -4.1912 N   0  0  0  0  0  0  0  0  0  0  0  0
   58.3893  157.4738   -5.3731 N   0  0  0  0  0  0  0  0  0  0  0  0
   52.8130  155.1356   -2.8959 N   0  0  0  0  0  0  0  0  0  0  0  0
   56.1800  155.4367   -6.5538 H   0  0  0  0  0  0  0  0  0  0  0  0
   54.4101  155.7084   -5.2893 H   0  0  0  0  0  0  0  0  0  0  0  0
   60.1829  156.4007   -5.8821 H   0  0  0  0  0  0  0  0  0  0  0  0
   59.1167  159.4001   -5.4907 H   0  0  0  0  0  0  0  0  0  0  0  0
   58.2551  159.0013   -3.9658 H   0  0  0  0  0  0  0  0  0  0  0  0
   59.8945  158.3624   -4.2468 H   0  0  0  0  0  0  0  0  0  0  0  0
   56.3535  159.0106   -4.6257 H   0  0  0  0  0  0  0  0  0  0  0  0
   55.3651  158.4721   -5.9752 H   0  0  0  0  0  0  0  0  0  0  0  0
   52.5758  154.3889   -3.5672 H   0  0  0  0  0  0  0  0  0  0  0  0
   52.2883  155.1132   -2.0078 H   0  0  0  0  0  0  0  0  0  0  0  0
  1  4  2  0  0  0  0
  1  8  1  0  0  0  0
  2  5  2  0  0  0  0
  2 11  1  0  0  0  0
  3  8  2  0  0  0  0
  3 12  1  0  0  0  0
  4  7  1  0  0  0  0
  4 12  1  0  0  0  0
  5  9  1  0  0  0  0
  5 13  1  0  0  0  0
  6 12  1  0  0  0  0
  7 11  1  0  0  0  0
  9 10  2  0  0  0  0
 10 11  1  0  0  0  0
  1 14  1  0  0  0  0
  2 15  1  0  0  0  0
  3 16  1  0  0  0  0
  6 17  1  0  0  0  0
  6 18  1  0  0  0  0
  6 19  1  0  0  0  0
  7 20  1  0  0  0  0
  7 21  1  0  0  0  0
 13 22  1  0  0  0  0
 13 23  1  0  0  0  0
M  END
> <FRED Chemgauss4 score>
-5.762392

$$$$
C05134886	P141865301
  -OEChem-05122015083D

 22 22  0     1  0  0  0  0  0999 V2000
   58.3654  154.8627   -6.1601 C   0  0  0  0  0  0  0  0  0  0  0  0
   57.4231  155.9492   -5.7228 C   0  0  2  0  0  0  0  0  0  0  0  0
   55.9247  155.7957   -5.8741 C   0  0  0  0  0  0  0  0  0  0  0  0
   53.6667  156.2077   -2.8455 C   0  0  0  0  0  0  0  0  0  0  0  0
   54.0238  154.8077   -4.9081 C   0  0  0  0  0  0  0  0  0  0  0  0
   53.3093  156.0161   -4.3136 C   0  0  1  0  0  0  0  0  0  0  0  0
   58.1402  156.0354   -6.9585 O   0  0  0  0  0  0  0  0  0  0  0  0
   53.2552  155.0567   -2.1156 O   0  0  0  0  0  0  0  0  0  0  0  0
   51.8985  155.8027   -4.4001 O   0  0  0  0  0  0  0  0  0  0  0  0
   55.4334  154.9863   -4.8156 O   0  0  0  0  0  0  0  0  0  0  0  0
   59.3186  154.7802   -5.6544 H   0  0  0  0  0  0  0  0  0  0  0  0
   57.9550  153.9276   -6.5177 H   0  0  0  0  0  0  0  0  0  0  0  0
   57.7149  156.6049   -4.9148 H   0  0  0  0  0  0  0  0  0  0  0  0
   55.6825  155.3153   -6.8268 H   0  0  0  0  0  0  0  0  0  0  0  0
   55.4323  156.7716   -5.8294 H   0  0  0  0  0  0  0  0  0  0  0  0
   53.1518  157.0764   -2.4219 H   0  0  0  0  0  0  0  0  0  0  0  0
   54.7472  156.3234   -2.7149 H   0  0  0  0  0  0  0  0  0  0  0  0
   53.7687  154.6677   -5.9631 H   0  0  0  0  0  0  0  0  0  0  0  0
   53.7752  153.8934   -4.3601 H   0  0  0  0  0  0  0  0  0  0  0  0
   53.5265  156.9254   -4.8852 H   0  0  0  0  0  0  0  0  0  0  0  0
   53.4978  155.2138   -1.1895 H   0  0  0  0  0  0  0  0  0  0  0  0
   51.4806  156.5944   -4.0301 H   0  0  0  0  0  0  0  0  0  0  0  0
  1  2  1  0  0  0  0
  1  7  1  0  0  0  0
  2  3  1  0  0  0  0
  2  7  1  0  0  0  0
  3 10  1  0  0  0  0
  4  6  1  0  0  0  0
  4  8  1  0  0  0  0
  5  6  1  0  0  0  0
  5 10  1  0  0  0  0
  6  9  1  0  0  0  0
  1 11  1  0  0  0  0
  1 12  1  0  0  0  0
  2 13  1  0  0  0  0
  3 14  1  0  0  0  0
  3 15  1  0  0  0  0
  4 16  1  0  0  0  0
  4 17  1  0  0  0  0
  5 18  1  0  0  0  0
  5 19  1  0  0  0  0
  6 20  1  0  0  0  0
  8 21  1  0  0  0  0
  9 22  1  0  0  0  0
M  END
> <FRED Chemgauss4 score>
-5.758904

$$$$
C85085338	P133149953
  -OEChem-05122015083D

 25 25  0     1  0  0  0  0  0999 V2000
   53.8982  157.3114   -5.7480 C   0  0  0  0  0  0  0  0  0  0  0  0
   53.9012  155.5591   -4.0026 C   0  0  0  0  0  0  0  0  0  0  0  0
   55.3336  156.9572   -6.0548 C   0  0  0  0  0  0  0  0  0  0  0  0
   55.3367  155.2564   -4.3600 C   0  0  0  0  0  0  0  0  0  0  0  0
   57.5770  155.5338   -6.4271 C   0  0  0  0  0  0  0  0  0  0  0  0
   58.1847  157.5478   -4.9852 C   0  0  0  0  0  0  0  0  0  0  0  0
   57.4054  156.2345   -5.0830 C   0  0  1  0  0  0  0  0  0  0  0  0
   53.3004  156.5632   -4.7458 N   0  0  0  0  0  0  0  0  0  0  0  0
   55.9842  156.4798   -4.8343 N   0  0  0  0  0  0  0  0  0  0  0  0
   59.6029  157.3445   -5.1749 N   0  0  0  0  0  0  0  0  0  0  0  0
   53.2961  158.1690   -6.3935 O   0  0  0  0  0  0  0  0  0  0  0  0
   53.3014  154.9089   -3.1469 O   0  0  0  0  0  0  0  0  0  0  0  0
   55.3505  156.2124   -6.8596 H   0  0  0  0  0  0  0  0  0  0  0  0
   55.8253  157.8703   -6.4108 H   0  0  0  0  0  0  0  0  0  0  0  0
   55.8303  154.8985   -3.4487 H   0  0  0  0  0  0  0  0  0  0  0  0
   55.3526  154.4547   -5.1079 H   0  0  0  0  0  0  0  0  0  0  0  0
   57.2276  156.1542   -7.2596 H   0  0  0  0  0  0  0  0  0  0  0  0
   58.6338  155.3106   -6.6118 H   0  0  0  0  0  0  0  0  0  0  0  0
   57.0242  154.5889   -6.4475 H   0  0  0  0  0  0  0  0  0  0  0  0
   58.0259  158.0067   -4.0029 H   0  0  0  0  0  0  0  0  0  0  0  0
   57.8227  158.2563   -5.7383 H   0  0  0  0  0  0  0  0  0  0  0  0
   57.7729  155.5609   -4.2999 H   0  0  0  0  0  0  0  0  0  0  0  0
   52.3281  156.7708   -4.5358 H   0  0  0  0  0  0  0  0  0  0  0  0
   60.0306  156.5235   -4.7859 H   0  0  0  0  0  0  0  0  0  0  0  0
   60.1618  158.1104   -5.5059 H   0  0  0  0  0  0  0  0  0  0  0  0
  1  3  1  0  0  0  0
  1  8  1  0  0  0  0
  1 11  2  0  0  0  0
  2  4  1  0  0  0  0
  2  8  1  0  0  0  0
  2 12  2  0  0  0  0
  3  9  1  0  0  0  0
  4  9  1  0  0  0  0
  5  7  1  0  0  0  0
  6  7  1  0  0  0  0
  6 10  1  0  0  0  0
  7  9  1  0  0  0  0
  3 13  1  0  0  0  0
  3 14  1  0  0  0  0
  4 15  1  0  0  0  0
  4 16  1  0  0  0  0
  5 17  1  0  0  0  0
  5 18  1  0  0  0  0
  5 19  1  0  0  0  0
  6 20  1  0  0  0  0
  6 21  1  0  0  0  0
  7 22  1  0  0  0  0
  8 23  1  0  0  0  0
 10 24  1  0  0  0  0
 10 25  1  0  0  0  0
M  END
> <FRED Chemgauss4 score>
-5.757961

$$$$
C95627120	P150369225
  -OEChem-05122015083D

 19 19  0     1  0  0  0  0  0999 V2000
   53.3507  156.3971   -3.3434 C   0  0  0  0  0  0  0  0  0  0  0  0
   55.7518  156.5607   -4.2278 C   0  0  0  0  0  0  0  0  0  0  0  0
   53.8430  156.4542   -5.8161 C   0  0  0  0  0  0  0  0  0  0  0  0
   54.8031  156.7334   -3.0401 C   0  0  1  0  0  0  0  0  0  0  0  0
   55.1796  157.1148   -5.5264 C   0  0  1  0  0  0  0  0  0  0  0  0
   52.9606  156.4059   -4.6635 N   0  0  0  0  0  0  0  0  0  0  0  0
   54.8048  158.1078   -2.5382 N   0  0  0  0  0  0  0  0  0  0  0  0
   52.5468  156.1990   -2.4286 O   0  0  0  0  0  0  0  0  0  0  0  0
   55.0239  158.5264   -5.4398 O   0  0  0  0  0  0  0  0  0  0  0  0
   56.7315  157.0475   -4.0244 H   0  0  0  0  0  0  0  0  0  0  0  0
   56.0083  155.4878   -4.3612 H   0  0  0  0  0  0  0  0  0  0  0  0
   53.3072  156.9886   -6.6090 H   0  0  0  0  0  0  0  0  0  0  0  0
   53.9868  155.4294   -6.1737 H   0  0  0  0  0  0  0  0  0  0  0  0
   55.1062  156.0661   -2.2242 H   0  0  0  0  0  0  0  0  0  0  0  0
   55.8898  156.9079   -6.3572 H   0  0  0  0  0  0  0  0  0  0  0  0
   51.9603  156.3757   -4.8517 H   0  0  0  0  0  0  0  0  0  0  0  0
   55.6710  158.5997   -2.5253 H   0  0  0  0  0  0  0  0  0  0  0  0
   53.9995  158.4266   -2.0458 H   0  0  0  0  0  0  0  0  0  0  0  0
   54.6585  158.8204   -6.2898 H   0  0  0  0  0  0  0  0  0  0  0  0
  1  4  1  0  0  0  0
  1  6  1  0  0  0  0
  1  8  2  0  0  0  0
  2  4  1  0  0  0  0
  2  5  1  0  0  0  0
  3  5  1  0  0  0  0
  3  6  1  0  0  0  0
  4  7  1  0  0  0  0
  5  9  1  0  0  0  0
  2 10  1  0  0  0  0
  2 11  1  0  0  0  0
  3 12  1  0  0  0  0
  3 13  1  0  0  0  0
  4 14  1  0  0  0  0
  5 15  1  0  0  0  0
  6 16  1  0  0  0  0
  7 17  1  0  0  0  0
  7 18  1  0  0  0  0
  9 19  1  0  0  0  0
M  END
> <FRED Chemgauss4 score>
-5.757052

$$$$
C88028385	P137679006
  -OEChem-05122015083D

 28 29  0     1  0  0  0  0  0999 V2000
   57.4081  156.7169   -5.5994 C   0  0  0  0  0  0  0  0  0  0  0  0
   55.9036  162.0906   -4.6959 C   0  0  0  0  0  0  0  0  0  0  0  0
   54.5516  162.3310   -4.7654 C   0  0  0  0  0  0  0  0  0  0  0  0
   56.5897  155.8527   -6.2928 C   0  0  0  0  0  0  0  0  0  0  0  0
   56.6709  157.5660   -4.7242 C   0  0  0  0  0  0  0  0  0  0  0  0
   55.3169  157.3184   -4.7824 C   0  0  0  0  0  0  0  0  0  0  0  0
   54.9791  160.4121   -3.7695 C   0  0  0  0  0  0  0  0  0  0  0  0
   58.6318  158.6697   -3.9543 C   0  0  0  0  0  0  0  0  0  0  0  0
   54.6862  159.1065   -3.0659 C   0  0  0  0  0  0  0  0  0  0  0  0
   54.1912  157.9980   -4.0216 C   0  0  2  0  0  0  0  0  0  0  0  0
   56.1631  160.8944   -4.0752 N   0  0  0  0  0  0  0  0  0  0  0  0
   53.9724  161.2469   -4.1683 N   0  0  0  0  0  0  0  0  0  0  0  0
   53.3967  157.0129   -3.2753 N   0  0  0  0  0  0  0  0  0  0  0  0
   57.2070  158.5061   -3.9264 O   0  0  0  0  0  0  0  0  0  0  0  0
   54.9396  156.0667   -5.8883 S   0  0  0  0  0  0  0  0  0  0  0  0
   58.4840  156.7366   -5.7170 H   0  0  0  0  0  0  0  0  0  0  0  0
   56.7032  162.7173   -5.0626 H   0  0  0  0  0  0  0  0  0  0  0  0
   53.9681  163.1451   -5.1699 H   0  0  0  0  0  0  0  0  0  0  0  0
   56.8818  155.1067   -7.0183 H   0  0  0  0  0  0  0  0  0  0  0  0
   58.9219  159.4628   -3.2609 H   0  0  0  0  0  0  0  0  0  0  0  0
   58.9505  158.9231   -4.9686 H   0  0  0  0  0  0  0  0  0  0  0  0
   59.1032  157.7323   -3.6499 H   0  0  0  0  0  0  0  0  0  0  0  0
   53.9234  159.3060   -2.3003 H   0  0  0  0  0  0  0  0  0  0  0  0
   55.5754  158.7791   -2.5112 H   0  0  0  0  0  0  0  0  0  0  0  0
   53.5068  158.4508   -4.7504 H   0  0  0  0  0  0  0  0  0  0  0  0
   52.9806  161.0931   -4.0424 H   0  0  0  0  0  0  0  0  0  0  0  0
   53.2794  156.1141   -3.6804 H   0  0  0  0  0  0  0  0  0  0  0  0
   52.8510  157.3432   -2.5144 H   0  0  0  0  0  0  0  0  0  0  0  0
  1  4  2  0  0  0  0
  1  5  1  0  0  0  0
  2  3  2  0  0  0  0
  2 11  1  0  0  0  0
  3 12  1  0  0  0  0
  4 15  1  0  0  0  0
  5  6  2  0  0  0  0
  5 14  1  0  0  0  0
  6 10  1  0  0  0  0
  6 15  1  0  0  0  0
  7  9  1  0  0  0  0
  7 11  2  0  0  0  0
  7 12  1  0  0  0  0
  8 14  1  0  0  0  0
  9 10  1  0  0  0  0
 10 13  1  0  0  0  0
  1 16  1  0  0  0  0
  2 17  1  0  0  0  0
  3 18  1  0  0  0  0
  4 19  1  0  0  0  0
  8 20  1  0  0  0  0
  8 21  1  0  0  0  0
  8 22  1  0  0  0  0
  9 23  1  0  0  0  0
  9 24  1  0  0  0  0
 10 25  1  0  0  0  0
 12 26  1  0  0  0  0
 13 27  1  0  0  0  0
 13 28  1  0  0  0  0
M  END
> <FRED Chemgauss4 score>
-5.755284

$$$$
C37440376	P55674866
  -OEChem-05122015083D

 38 39  0     1  0  0  0  0  0999 V2000
   58.0246  159.9561   -1.9352 C   0  0  0  0  0  0  0  0  0  0  0  0
   58.1810  160.2428   -0.5751 C   0  0  0  0  0  0  0  0  0  0  0  0
   55.9877  159.3233   -0.0540 C   0  0  0  0  0  0  0  0  0  0  0  0
   55.8135  159.0283   -1.4167 C   0  0  0  0  0  0  0  0  0  0  0  0
   56.8272  159.3490   -2.3152 C   0  0  0  0  0  0  0  0  0  0  0  0
   57.1820  159.9328    0.3505 C   0  0  0  0  0  0  0  0  0  0  0  0
   55.1053  158.4017   -3.3312 C   0  0  0  0  0  0  0  0  0  0  0  0
   58.3799  158.3471   -4.7885 C   0  0  0  0  0  0  0  0  0  0  0  0
   56.0058  156.0249   -5.1564 C   0  0  0  0  0  0  0  0  0  0  0  0
   53.6489  155.8504   -5.9783 C   0  0  0  0  0  0  0  0  0  0  0  0
   54.1607  155.4446   -3.5795 C   0  0  0  0  0  0  0  0  0  0  0  0
   57.0341  159.0516   -4.7987 C   0  0  0  0  0  0  0  0  0  0  0  0
   54.2696  157.8378   -4.4757 C   0  0  1  0  0  0  0  0  0  0  0  0
   54.5345  156.3179   -4.8019 C   0  0  0  0  0  0  0  0  0  0  0  0
   54.7522  158.4405   -2.0659 N   0  0  0  0  0  0  0  0  0  0  0  0
   56.3471  158.9371   -3.5320 N   0  0  0  0  0  0  0  0  0  0  0  0
   52.8421  158.1309   -4.2628 N   0  0  0  0  0  0  0  0  0  0  0  0
   57.4200  160.3039    2.0167 Cl  0  0  0  0  0  0  0  0  0  0  0  0
   58.8011  160.1964   -2.6528 H   0  0  0  0  0  0  0  0  0  0  0  0
   59.1047  160.7157   -0.2475 H   0  0  0  0  0  0  0  0  0  0  0  0
   55.2080  159.0804    0.6620 H   0  0  0  0  0  0  0  0  0  0  0  0
   59.0370  158.7603   -4.0160 H   0  0  0  0  0  0  0  0  0  0  0  0
   58.8763  158.4634   -5.7569 H   0  0  0  0  0  0  0  0  0  0  0  0
   58.2642  157.2763   -4.5904 H   0  0  0  0  0  0  0  0  0  0  0  0
   56.6856  156.3360   -4.3565 H   0  0  0  0  0  0  0  0  0  0  0  0
   56.1624  154.9513   -5.3163 H   0  0  0  0  0  0  0  0  0  0  0  0
   56.3104  156.5284   -6.0788 H   0  0  0  0  0  0  0  0  0  0  0  0
   52.5882  156.0380   -5.7736 H   0  0  0  0  0  0  0  0  0  0  0  0
   53.7508  154.7760   -6.1634 H   0  0  0  0  0  0  0  0  0  0  0  0
   53.9055  156.3822   -6.9013 H   0  0  0  0  0  0  0  0  0  0  0  0
   53.1201  155.6104   -3.2792 H   0  0  0  0  0  0  0  0  0  0  0  0
   54.2719  154.3778   -3.8067 H   0  0  0  0  0  0  0  0  0  0  0  0
   54.8011  155.6532   -2.7163 H   0  0  0  0  0  0  0  0  0  0  0  0
   56.3839  158.6314   -5.5744 H   0  0  0  0  0  0  0  0  0  0  0  0
   57.1578  160.1176   -5.0203 H   0  0  0  0  0  0  0  0  0  0  0  0
   54.5445  158.4063   -5.3758 H   0  0  0  0  0  0  0  0  0  0  0  0
   52.1847  157.5974   -4.7781 H   0  0  0  0  0  0  0  0  0  0  0  0
   52.6146  158.9671   -3.7817 H   0  0  0  0  0  0  0  0  0  0  0  0
  1  2  2  0  0  0  0
  1  5  1  0  0  0  0
  2  6  1  0  0  0  0
  3  4  1  0  0  0  0
  3  6  2  0  0  0  0
  4  5  2  0  0  0  0
  4 15  1  0  0  0  0
  5 16  1  0  0  0  0
  6 18  1  0  0  0  0
  7 13  1  0  0  0  0
  7 15  2  0  0  0  0
  7 16  1  0  0  0  0
  8 12  1  0  0  0  0
  9 14  1  0  0  0  0
 10 14  1  0  0  0  0
 11 14  1  0  0  0  0
 12 16  1  0  0  0  0
 13 14  1  0  0  0  0
 13 17  1  0  0  0  0
  1 19  1  0  0  0  0
  2 20  1  0  0  0  0
  3 21  1  0  0  0  0
  8 22  1  0  0  0  0
  8 23  1  0  0  0  0
  8 24  1  0  0  0  0
  9 25  1  0  0  0  0
  9 26  1  0  0  0  0
  9 27  1  0  0  0  0
 10 28  1  0  0  0  0
 10 29  1  0  0  0  0
 10 30  1  0  0  0  0
 11 31  1  0  0  0  0
 11 32  1  0  0  0  0
 11 33  1  0  0  0  0
 12 34  1  0  0  0  0
 12 35  1  0  0  0  0
 13 36  1  0  0  0  0
 17 37  1  0  0  0  0
 17 38  1  0  0  0  0
M  END
> <FRED Chemgauss4 score>
-5.752005

$$$$
C98090319	P155911238
  -OEChem-05122015083D

 23 22  0     1  0  0  0  0  0999 V2000
   56.2623  155.6617   -6.1767 C   0  0  0  0  0  0  0  0  0  0  0  0
   52.9237  154.9522   -3.5376 C   0  0  0  0  0  0  0  0  0  0  0  0
   54.8772  155.0620   -6.2296 C   0  0  2  0  0  0  0  0  0  0  0  0
   53.7240  156.1044   -4.1439 C   0  0  1  0  0  0  0  0  0  0  0  0
   53.8423  156.0531   -5.6778 C   0  0  2  0  0  0  0  0  0  0  0  0
   57.2878  154.9687   -6.5490 N   0  0  0  0  0  0  0  0  0  0  0  0
   56.9554  153.7299   -6.9579 N   0  0  0  0  0  0  0  0  0  0  0  0
   53.2320  154.8636   -2.1491 O   0  0  0  0  0  0  0  0  0  0  0  0
   54.9544  153.8840   -5.4438 O   0  0  0  0  0  0  0  0  0  0  0  0
   53.1130  157.3394   -3.7692 O   0  0  0  0  0  0  0  0  0  0  0  0
   52.5592  155.7389   -6.2210 O   0  0  0  0  0  0  0  0  0  0  0  0
   56.3429  156.7037   -5.8111 H   0  0  0  0  0  0  0  0  0  0  0  0
   51.8465  155.1251   -3.6238 H   0  0  0  0  0  0  0  0  0  0  0  0
   53.1810  153.9951   -3.9995 H   0  0  0  0  0  0  0  0  0  0  0  0
   54.6533  154.7835   -7.2650 H   0  0  0  0  0  0  0  0  0  0  0  0
   54.7310  156.1040   -3.7084 H   0  0  0  0  0  0  0  0  0  0  0  0
   54.0984  157.0616   -6.0276 H   0  0  0  0  0  0  0  0  0  0  0  0
   56.0365  153.7218   -7.3991 H   0  0  0  0  0  0  0  0  0  0  0  0
   57.6294  153.4127   -7.6522 H   0  0  0  0  0  0  0  0  0  0  0  0
   52.7100  154.1262   -1.7967 H   0  0  0  0  0  0  0  0  0  0  0  0
   55.6258  153.3135   -5.8538 H   0  0  0  0  0  0  0  0  0  0  0  0
   53.1311  157.3707   -2.8009 H   0  0  0  0  0  0  0  0  0  0  0  0
   52.6428  155.8194   -7.1829 H   0  0  0  0  0  0  0  0  0  0  0  0
  1  3  1  0  0  0  0
  1  6  2  0  0  0  0
  2  4  1  0  0  0  0
  2  8  1  0  0  0  0
  3  5  1  0  0  0  0
  3  9  1  0  0  0  0
  4  5  1  0  0  0  0
  4 10  1  0  0  0  0
  5 11  1  0  0  0  0
  6  7  1  0  0  0  0
  1 12  1  0  0  0  0
  2 13  1  0  0  0  0
  2 14  1  0  0  0  0
  3 15  1  0  0  0  0
  4 16  1  0  0  0  0
  5 17  1  0  0  0  0
  7 18  1  0  0  0  0
  7 19  1  0  0  0  0
  8 20  1  0  0  0  0
  9 21  1  0  0  0  0
 10 22  1  0  0  0  0
 11 23  1  0  0  0  0
M  END
> <FRED Chemgauss4 score>
-5.748577

$$$$
C50674474	P80478612
  -OEChem-05122015083D

 31 31  0     1  0  0  0  0  0999 V2000
   56.2102  155.9975   -4.6788 C   0  0  0  0  0  0  0  0  0  0  0  0
   53.8257  155.8155   -4.9685 C   0  0  0  0  0  0  0  0  0  0  0  0
   56.3743  155.4691   -5.9513 C   0  0  0  0  0  0  0  0  0  0  0  0
   54.9204  156.1708   -4.1862 C   0  0  0  0  0  0  0  0  0  0  0  0
   54.0501  155.2918   -6.2338 C   0  0  0  0  0  0  0  0  0  0  0  0
   55.6889  160.4046   -3.3824 C   0  0  0  0  0  0  0  0  0  0  0  0
   56.2880  159.2726   -1.2145 C   0  0  0  0  0  0  0  0  0  0  0  0
   56.5388  162.7438   -3.4090 C   0  0  0  0  0  0  0  0  0  0  0  0
   55.8797  159.0726   -2.6695 C   0  0  1  0  0  0  0  0  0  0  0  0
   54.5749  158.4325   -2.7569 N   0  5  0  0  0  0  0  0  0  0  0  0
   55.3027  155.1354   -6.6834 N   0  3  0  0  0  0  0  0  0  0  0  0
   52.9876  154.9160   -7.0671 N   0  0  0  0  0  0  0  0  0  0  0  0
   56.5240  161.3970   -2.8862 N   0  0  0  0  0  0  0  0  0  0  0  0
   54.8868  160.5583   -4.3018 O   0  0  0  0  0  0  0  0  0  0  0  0
   55.8549  156.3966   -1.8185 O   0  0  0  0  0  0  0  0  0  0  0  0
   53.4268  156.2118   -2.1135 O   0  0  0  0  0  0  0  0  0  0  0  0
   54.6685  156.8542   -2.5382 S   0  0  0  0  0  0  0  0  0  0  0  0
   57.0793  156.2661   -4.0867 H   0  0  0  0  0  0  0  0  0  0  0  0
   52.8136  155.9449   -4.5955 H   0  0  0  0  0  0  0  0  0  0  0  0
   57.3366  155.2997   -6.4142 H   0  0  0  0  0  0  0  0  0  0  0  0
   55.5315  159.8506   -0.6719 H   0  0  0  0  0  0  0  0  0  0  0  0
   57.2405  159.8086   -1.1237 H   0  0  0  0  0  0  0  0  0  0  0  0
   56.4039  158.3070   -0.7101 H   0  0  0  0  0  0  0  0  0  0  0  0
   57.2659  162.8235   -4.2212 H   0  0  0  0  0  0  0  0  0  0  0  0
   56.8115  163.4518   -2.6217 H   0  0  0  0  0  0  0  0  0  0  0  0
   55.5508  163.0108   -3.7936 H   0  0  0  0  0  0  0  0  0  0  0  0
   56.6571  158.4925   -3.1800 H   0  0  0  0  0  0  0  0  0  0  0  0
   55.4424  154.7498   -7.6164 H   0  0  0  0  0  0  0  0  0  0  0  0
   52.0441  154.9816   -6.7292 H   0  0  0  0  0  0  0  0  0  0  0  0
   53.1806  154.4962   -7.9588 H   0  0  0  0  0  0  0  0  0  0  0  0
   57.1520  161.1659   -2.1221 H   0  0  0  0  0  0  0  0  0  0  0  0
  1  3  2  0  0  0  0
  1  4  1  0  0  0  0
  2  4  2  0  0  0  0
  2  5  1  0  0  0  0
  3 11  1  0  0  0  0
  4 17  1  0  0  0  0
  5 11  2  0  0  0  0
  5 12  1  0  0  0  0
  6  9  1  0  0  0  0
  6 13  1  0  0  0  0
  6 14  2  0  0  0  0
  7  9  1  0  0  0  0
  8 13  1  0  0  0  0
  9 10  1  0  0  0  0
 10 17  1  0  0  0  0
 15 17  2  0  0  0  0
 16 17  2  0  0  0  0
  1 18  1  0  0  0  0
  2 19  1  0  0  0  0
  3 20  1  0  0  0  0
  7 21  1  0  0  0  0
  7 22  1  0  0  0  0
  7 23  1  0  0  0  0
  8 24  1  0  0  0  0
  8 25  1  0  0  0  0
  8 26  1  0  0  0  0
  9 27  1  0  0  0  0
 11 28  1  0  0  0  0
 12 29  1  0  0  0  0
 12 30  1  0  0  0  0
 13 31  1  0  0  0  0
M  CHG  2  10  -1  11   1
M  END
> <FRED Chemgauss4 score>
-5.746281

$$$$
C95673041	P150460172
  -OEChem-05122015083D

 23 23  0     1  0  0  0  0  0999 V2000
   55.7274  153.4060   -6.9074 C   0  0  0  0  0  0  0  0  0  0  0  0
   57.0436  153.8400   -6.7963 C   0  0  0  0  0  0  0  0  0  0  0  0
   54.6924  154.2224   -6.4651 C   0  0  0  0  0  0  0  0  0  0  0  0
   57.2701  155.0887   -6.2401 C   0  0  0  0  0  0  0  0  0  0  0  0
   55.0240  155.4539   -5.9236 C   0  0  0  0  0  0  0  0  0  0  0  0
   54.8566  156.5417   -3.0357 C   0  0  0  0  0  0  0  0  0  0  0  0
   53.9166  156.3741   -5.4288 C   0  0  2  0  0  0  0  0  0  0  0  0
   54.4149  157.2953   -4.2886 C   0  0  1  0  0  0  0  0  0  0  0  0
   56.2907  155.9098   -5.7993 N   0  0  0  0  0  0  0  0  0  0  0  0
   52.7456  155.5879   -5.0247 N   0  0  0  0  0  0  0  0  0  0  0  0
   53.3544  158.1757   -3.9010 O   0  0  0  0  0  0  0  0  0  0  0  0
   55.5087  152.4334   -7.3378 H   0  0  0  0  0  0  0  0  0  0  0  0
   57.8663  153.2205   -7.1345 H   0  0  0  0  0  0  0  0  0  0  0  0
   53.6612  153.8955   -6.5461 H   0  0  0  0  0  0  0  0  0  0  0  0
   58.2787  155.4734   -6.1313 H   0  0  0  0  0  0  0  0  0  0  0  0
   54.0662  155.8917   -2.6499 H   0  0  0  0  0  0  0  0  0  0  0  0
   55.1575  157.2382   -2.2453 H   0  0  0  0  0  0  0  0  0  0  0  0
   55.7316  155.9195   -3.2549 H   0  0  0  0  0  0  0  0  0  0  0  0
   53.6070  157.0128   -6.2668 H   0  0  0  0  0  0  0  0  0  0  0  0
   55.2452  157.9263   -4.6256 H   0  0  0  0  0  0  0  0  0  0  0  0
   52.5483  154.7574   -5.5336 H   0  0  0  0  0  0  0  0  0  0  0  0
   52.0934  156.0140   -4.4077 H   0  0  0  0  0  0  0  0  0  0  0  0
   53.7265  158.7679   -3.2319 H   0  0  0  0  0  0  0  0  0  0  0  0
  1  2  1  0  0  0  0
  1  3  2  0  0  0  0
  2  4  2  0  0  0  0
  3  5  1  0  0  0  0
  4  9  1  0  0  0  0
  5  7  1  0  0  0  0
  5  9  2  0  0  0  0
  6  8  1  0  0  0  0
  7  8  1  0  0  0  0
  7 10  1  0  0  0  0
  8 11  1  0  0  0  0
  1 12  1  0  0  0  0
  2 13  1  0  0  0  0
  3 14  1  0  0  0  0
  4 15  1  0  0  0  0
  6 16  1  0  0  0  0
  6 17  1  0  0  0  0
  6 18  1  0  0  0  0
  7 19  1  0  0  0  0
  8 20  1  0  0  0  0
 10 21  1  0  0  0  0
 10 22  1  0  0  0  0
 11 23  1  0  0  0  0
M  END
> <FRED Chemgauss4 score>
-5.743154

$$$$
C95922135	P151020631
  -OEChem-05122015083D

 16 16  0     1  0  0  0  0  0999 V2000
   53.6852  155.6506   -5.8249 C   0  0  0  0  0  0  0  0  0  0  0  0
   53.4703  156.0970   -3.4011 C   0  0  0  0  0  0  0  0  0  0  0  0
   55.1498  155.9760   -5.7358 C   0  0  2  0  0  0  0  0  0  0  0  0
   55.3934  157.0279   -4.6710 C   0  0  2  0  0  0  0  0  0  0  0  0
   53.1369  155.2901   -6.9355 N   0  0  0  0  0  0  0  0  0  0  0  0
   52.9702  155.7043   -4.6458 N   0  0  0  0  0  0  0  0  0  0  0  0
   54.7330  156.6716   -3.4331 N   0  0  0  0  0  0  0  0  0  0  0  0
   52.8410  155.9338   -2.3548 O   0  0  0  0  0  0  0  0  0  0  0  0
   54.8863  158.2822   -5.1121 O   0  0  0  0  0  0  0  0  0  0  0  0
   55.6430  156.4165   -6.9239 F   0  0  0  0  0  0  0  0  0  0  0  0
   55.6734  155.0469   -5.4819 H   0  0  0  0  0  0  0  0  0  0  0  0
   56.4638  157.1461   -4.4767 H   0  0  0  0  0  0  0  0  0  0  0  0
   52.1390  155.1165   -6.7789 H   0  0  0  0  0  0  0  0  0  0  0  0
   51.9917  155.4338   -4.6861 H   0  0  0  0  0  0  0  0  0  0  0  0
   55.2116  156.8488   -2.5554 H   0  0  0  0  0  0  0  0  0  0  0  0
   55.0641  158.9195   -4.4023 H   0  0  0  0  0  0  0  0  0  0  0  0
  1  3  1  0  0  0  0
  1  5  2  0  0  0  0
  1  6  1  0  0  0  0
  2  6  1  0  0  0  0
  2  7  1  0  0  0  0
  2  8  2  0  0  0  0
  3  4  1  0  0  0  0
  3 10  1  0  0  0  0
  4  7  1  0  0  0  0
  4  9  1  0  0  0  0
  3 11  1  0  0  0  0
  4 12  1  0  0  0  0
  5 13  1  0  0  0  0
  6 14  1  0  0  0  0
  7 15  1  0  0  0  0
  9 16  1  0  0  0  0
M  END
> <FRED Chemgauss4 score>
-5.740602

$$$$
C95922135	P151021417
  -OEChem-05122015083D

 16 16  0     1  0  0  0  0  0999 V2000
   53.6852  155.6506   -5.8249 C   0  0  0  0  0  0  0  0  0  0  0  0
   53.4703  156.0970   -3.4011 C   0  0  0  0  0  0  0  0  0  0  0  0
   55.1498  155.9760   -5.7358 C   0  0  2  0  0  0  0  0  0  0  0  0
   55.3934  157.0279   -4.6710 C   0  0  2  0  0  0  0  0  0  0  0  0
   53.1369  155.2901   -6.9355 N   0  0  0  0  0  0  0  0  0  0  0  0
   52.9702  155.7043   -4.6458 N   0  0  0  0  0  0  0  0  0  0  0  0
   54.7330  156.6716   -3.4331 N   0  0  0  0  0  0  0  0  0  0  0  0
   52.8410  155.9338   -2.3548 O   0  0  0  0  0  0  0  0  0  0  0  0
   54.8863  158.2822   -5.1121 O   0  0  0  0  0  0  0  0  0  0  0  0
   55.6430  156.4165   -6.9239 F   0  0  0  0  0  0  0  0  0  0  0  0
   55.6734  155.0469   -5.4819 H   0  0  0  0  0  0  0  0  0  0  0  0
   56.4638  157.1461   -4.4767 H   0  0  0  0  0  0  0  0  0  0  0  0
   53.8475  155.2750   -7.6739 H   0  0  0  0  0  0  0  0  0  0  0  0
   51.9917  155.4338   -4.6861 H   0  0  0  0  0  0  0  0  0  0  0  0
   55.2116  156.8488   -2.5554 H   0  0  0  0  0  0  0  0  0  0  0  0
   55.0641  158.9195   -4.4023 H   0  0  0  0  0  0  0  0  0  0  0  0
  1  3  1  0  0  0  0
  1  5  2  0  0  0  0
  1  6  1  0  0  0  0
  2  6  1  0  0  0  0
  2  7  1  0  0  0  0
  2  8  2  0  0  0  0
  3  4  1  0  0  0  0
  3 10  1  0  0  0  0
  4  7  1  0  0  0  0
  4  9  1  0  0  0  0
  3 11  1  0  0  0  0
  4 12  1  0  0  0  0
  5 13  1  0  0  0  0
  6 14  1  0  0  0  0
  7 15  1  0  0  0  0
  9 16  1  0  0  0  0
M  END
> <FRED Chemgauss4 score>
-5.740602

$$$$
C85227510	P133359270
  -OEChem-05122015083D

 18 18  0     1  0  0  0  0  0999 V2000
   54.0608  155.1404   -4.8351 C   0  0  0  0  0  0  0  0  0  0  0  0
   55.2744  153.8886   -6.0747 C   0  0  0  0  0  0  0  0  0  0  0  0
   54.4509  157.1660   -3.3897 C   0  0  0  0  0  0  0  0  0  0  0  0
   53.5206  155.9934   -3.7103 C   0  0  2  0  0  0  0  0  0  0  0  0
   54.2167  154.0575   -6.7818 N   0  0  0  0  0  0  0  0  0  0  0  0
   53.4411  154.8585   -5.9873 N   0  0  0  0  0  0  0  0  0  0  0  0
   55.2433  154.5264   -4.8689 N   0  3  0  0  0  0  0  0  0  0  0  0
   53.8929  157.9523   -2.3126 N   0  0  0  0  0  0  0  0  0  0  0  0
   56.3590  153.1192   -6.5034 O   0  5  0  0  0  0  0  0  0  0  0  0
   53.3646  155.1695   -2.5546 O   0  0  0  0  0  0  0  0  0  0  0  0
   54.5779  157.8137   -4.2640 H   0  0  0  0  0  0  0  0  0  0  0  0
   55.4414  156.8123   -3.0831 H   0  0  0  0  0  0  0  0  0  0  0  0
   52.5212  156.3620   -3.9730 H   0  0  0  0  0  0  0  0  0  0  0  0
   52.5216  155.1694   -6.2869 H   0  0  0  0  0  0  0  0  0  0  0  0
   55.9631  154.5333   -4.1522 H   0  0  0  0  0  0  0  0  0  0  0  0
   52.8995  158.0940   -2.2813 H   0  0  0  0  0  0  0  0  0  0  0  0
   54.5116  158.5025   -1.7446 H   0  0  0  0  0  0  0  0  0  0  0  0
   54.2447  154.8225   -2.3452 H   0  0  0  0  0  0  0  0  0  0  0  0
  1  4  1  0  0  0  0
  1  6  1  0  0  0  0
  1  7  2  0  0  0  0
  2  5  2  0  0  0  0
  2  7  1  0  0  0  0
  2  9  1  0  0  0  0
  3  4  1  0  0  0  0
  3  8  1  0  0  0  0
  4 10  1  0  0  0  0
  5  6  1  0  0  0  0
  3 11  1  0  0  0  0
  3 12  1  0  0  0  0
  4 13  1  0  0  0  0
  6 14  1  0  0  0  0
  7 15  1  0  0  0  0
  8 16  1  0  0  0  0
  8 17  1  0  0  0  0
 10 18  1  0  0  0  0
M  CHG  2   7   1   9  -1
M  END
> <FRED Chemgauss4 score>
-5.739848

$$$$
C00896178	P50892193
  -OEChem-05122015083D

 24 24  0     1  0  0  0  0  0999 V2000
   55.7426  157.4494   -5.0853 C   0  0  0  0  0  0  0  0  0  0  0  0
   55.3123  156.4539   -6.1590 C   0  0  1  0  0  0  0  0  0  0  0  0
   54.6031  155.2565   -5.5229 C   0  0  1  0  0  0  0  0  0  0  0  0
   53.4795  155.6965   -4.5799 C   0  0  1  0  0  0  0  0  0  0  0  0
   53.9911  156.7385   -3.5653 C   0  0  1  0  0  0  0  0  0  0  0  0
   54.9117  156.1167   -2.5089 C   0  0  0  0  0  0  0  0  0  0  0  0
   54.6574  157.8201   -4.2299 O   0  0  0  0  0  0  0  0  0  0  0  0
   54.4360  157.1102   -7.0749 O   0  0  0  0  0  0  0  0  0  0  0  0
   54.0827  154.3880   -6.5236 O   0  0  0  0  0  0  0  0  0  0  0  0
   52.4327  156.2787   -5.3645 O   0  0  0  0  0  0  0  0  0  0  0  0
   52.8840  157.2628   -2.8208 O   0  0  0  0  0  0  0  0  0  0  0  0
   54.1799  155.1331   -1.8039 O   0  0  0  0  0  0  0  0  0  0  0  0
   56.5249  157.0021   -4.4575 H   0  0  0  0  0  0  0  0  0  0  0  0
   56.1962  158.3499   -5.5240 H   0  0  0  0  0  0  0  0  0  0  0  0
   56.1840  156.1092   -6.6991 H   0  0  0  0  0  0  0  0  0  0  0  0
   55.3454  154.6277   -4.9596 H   0  0  0  0  0  0  0  0  0  0  0  0
   53.0965  154.8380   -4.0706 H   0  0  0  0  0  0  0  0  0  0  0  0
   55.2474  156.8862   -1.8166 H   0  0  0  0  0  0  0  0  0  0  0  0
   55.7682  155.6542   -2.9952 H   0  0  0  0  0  0  0  0  0  0  0  0
   54.9358  157.8469   -7.4629 H   0  0  0  0  0  0  0  0  0  0  0  0
   54.8410  154.0917   -7.0487 H   0  0  0  0  0  0  0  0  0  0  0  0
   52.1293  155.5911   -5.9784 H   0  0  0  0  0  0  0  0  0  0  0  0
   53.2545  157.9084   -2.2012 H   0  0  0  0  0  0  0  0  0  0  0  0
   54.7790  154.7505   -1.1396 H   0  0  0  0  0  0  0  0  0  0  0  0
  1  2  1  0  0  0  0
  1  7  1  0  0  0  0
  2  3  1  0  0  0  0
  2  8  1  0  0  0  0
  3  4  1  0  0  0  0
  3  9  1  0  0  0  0
  4  5  1  0  0  0  0
  4 10  1  0  0  0  0
  5  6  1  0  0  0  0
  5  7  1  0  0  0  0
  5 11  1  0  0  0  0
  6 12  1  0  0  0  0
  1 13  1  0  0  0  0
  1 14  1  0  0  0  0
  2 15  1  0  0  0  0
  3 16  1  0  0  0  0
  4 17  1  0  0  0  0
  6 18  1  0  0  0  0
  6 19  1  0  0  0  0
  8 20  1  0  0  0  0
  9 21  1  0  0  0  0
 10 22  1  0  0  0  0
 11 23  1  0  0  0  0
 12 24  1  0  0  0  0
M  END
> <FRED Chemgauss4 score>
-5.737383

$$$$
C87732307	P137229475
  -OEChem-05122015083D

 27 27  0     0  0  0  0  0  0999 V2000
   55.1949  155.7796   -4.4506 C   0  0  0  0  0  0  0  0  0  0  0  0
   55.2313  158.1022   -3.1347 C   0  0  0  0  0  0  0  0  0  0  0  0
   54.2820  156.0463   -3.4541 C   0  0  0  0  0  0  0  0  0  0  0  0
   56.1447  157.8353   -4.1306 C   0  0  0  0  0  0  0  0  0  0  0  0
   58.9589  159.9070   -5.5117 C   0  0  0  0  0  0  0  0  0  0  0  0
   60.8751  161.0316   -6.6715 C   0  0  0  0  0  0  0  0  0  0  0  0
   60.1776  158.7778   -7.3845 C   0  0  0  0  0  0  0  0  0  0  0  0
   58.0960  158.6590   -5.4495 C   0  0  0  0  0  0  0  0  0  0  0  0
   54.2836  157.2125   -2.7785 N   0  0  0  0  0  0  0  0  0  0  0  0
   56.1429  156.6691   -4.8065 N   0  0  0  0  0  0  0  0  0  0  0  0
   53.3219  155.0579   -3.1429 N   0  0  0  0  0  0  0  0  0  0  0  0
   57.0902  158.8079   -4.4369 N   0  0  0  0  0  0  0  0  0  0  0  0
   59.9644  159.9047   -6.4849 N   0  0  0  0  0  0  0  0  0  0  0  0
   58.7618  160.8500   -4.7408 O   0  0  0  0  0  0  0  0  0  0  0  0
   55.2027  154.8454   -5.0005 H   0  0  0  0  0  0  0  0  0  0  0  0
   55.2235  159.0365   -2.5850 H   0  0  0  0  0  0  0  0  0  0  0  0
   61.7617  160.9060   -6.0446 H   0  0  0  0  0  0  0  0  0  0  0  0
   60.3800  161.9672   -6.3975 H   0  0  0  0  0  0  0  0  0  0  0  0
   61.1894  161.0946   -7.7168 H   0  0  0  0  0  0  0  0  0  0  0  0
   59.5802  158.9028   -8.2914 H   0  0  0  0  0  0  0  0  0  0  0  0
   59.8854  157.8440   -6.8965 H   0  0  0  0  0  0  0  0  0  0  0  0
   61.2325  158.7118   -7.6643 H   0  0  0  0  0  0  0  0  0  0  0  0
   57.5847  158.5029   -6.4028 H   0  0  0  0  0  0  0  0  0  0  0  0
   58.7027  157.7890   -5.1855 H   0  0  0  0  0  0  0  0  0  0  0  0
   53.2992  154.2166   -3.6808 H   0  0  0  0  0  0  0  0  0  0  0  0
   52.6253  155.2574   -2.4553 H   0  0  0  0  0  0  0  0  0  0  0  0
   57.0608  159.6753   -3.9046 H   0  0  0  0  0  0  0  0  0  0  0  0
  1  3  2  0  0  0  0
  1 10  1  0  0  0  0
  2  4  1  0  0  0  0
  2  9  2  0  0  0  0
  3  9  1  0  0  0  0
  3 11  1  0  0  0  0
  4 10  2  0  0  0  0
  4 12  1  0  0  0  0
  5  8  1  0  0  0  0
  5 13  1  0  0  0  0
  5 14  2  0  0  0  0
  6 13  1  0  0  0  0
  7 13  1  0  0  0  0
  8 12  1  0  0  0  0
  1 15  1  0  0  0  0
  2 16  1  0  0  0  0
  6 17  1  0  0  0  0
  6 18  1  0  0  0  0
  6 19  1  0  0  0  0
  7 20  1  0  0  0  0
  7 21  1  0  0  0  0
  7 22  1  0  0  0  0
  8 23  1  0  0  0  0
  8 24  1  0  0  0  0
 11 25  1  0  0  0  0
 11 26  1  0  0  0  0
 12 27  1  0  0  0  0
M  END
> <FRED Chemgauss4 score>
-5.733587

$$$$
C97489182	P154436569
  -OEChem-05122015083D

 45 47  0     1  0  0  0  0  0999 V2000
   55.2462  159.6967   -2.2124 C   0  0  0  0  0  0  0  0  0  0  0  0
   55.3344  158.9968   -3.5453 C   0  0  0  0  0  0  0  0  0  0  0  0
   56.7209  154.7405   -6.0032 C   0  0  0  0  0  0  0  0  0  0  0  0
   59.6089  156.2756   -6.5479 C   0  0  0  0  0  0  0  0  0  0  0  0
   57.1698  157.0041   -6.9935 C   0  0  0  0  0  0  0  0  0  0  0  0
   55.9448  158.7144   -1.2962 C   0  0  0  0  0  0  0  0  0  0  0  0
   57.6119  154.0939   -7.0604 C   0  0  0  0  0  0  0  0  0  0  0  0
   60.7915  156.0748   -7.4755 C   0  0  0  0  0  0  0  0  0  0  0  0
   59.0739  157.0996   -8.6695 C   0  0  0  0  0  0  0  0  0  0  0  0
   56.0836  156.0158   -6.5414 C   0  0  2  0  0  0  0  0  0  0  0  0
   55.1263  157.5477   -3.1403 C   0  0  1  0  0  0  0  0  0  0  0  0
   58.4376  156.3150   -7.5225 C   0  0  1  0  0  0  0  0  0  0  0  0
   55.7450  156.5548   -4.1051 C   0  0  0  0  0  0  0  0  0  0  0  0
   55.1504  156.6527   -5.5153 C   0  0  2  0  0  0  0  0  0  0  0  0
   53.1198  156.6002   -6.6728 N   0  0  0  0  0  0  0  0  0  0  0  0
   53.8519  156.0254   -5.5850 N   0  0  0  0  0  0  0  0  0  0  0  0
   60.4616  156.7241   -8.7093 O   0  0  0  0  0  0  0  0  0  0  0  0
   55.7258  157.4047   -1.8415 O   0  0  0  0  0  0  0  0  0  0  0  0
   58.1257  155.0122   -8.0248 O   0  0  0  0  0  0  0  0  0  0  0  0
   55.7051  160.6888   -2.2044 H   0  0  0  0  0  0  0  0  0  0  0  0
   54.1958  159.8026   -1.9165 H   0  0  0  0  0  0  0  0  0  0  0  0
   54.5937  159.3465   -4.2697 H   0  0  0  0  0  0  0  0  0  0  0  0
   56.3328  159.1469   -3.9740 H   0  0  0  0  0  0  0  0  0  0  0  0
   55.9540  154.0274   -5.6793 H   0  0  0  0  0  0  0  0  0  0  0  0
   57.3352  154.9814   -5.1254 H   0  0  0  0  0  0  0  0  0  0  0  0
   59.5434  155.4776   -5.8034 H   0  0  0  0  0  0  0  0  0  0  0  0
   59.7131  157.2350   -6.0284 H   0  0  0  0  0  0  0  0  0  0  0  0
   56.7597  157.6916   -7.7531 H   0  0  0  0  0  0  0  0  0  0  0  0
   57.4464  157.6362   -6.1308 H   0  0  0  0  0  0  0  0  0  0  0  0
   57.0257  158.8903   -1.2776 H   0  0  0  0  0  0  0  0  0  0  0  0
   55.5669  158.7550   -0.2708 H   0  0  0  0  0  0  0  0  0  0  0  0
   58.4787  153.6228   -6.5668 H   0  0  0  0  0  0  0  0  0  0  0  0
   57.0812  153.2726   -7.5719 H   0  0  0  0  0  0  0  0  0  0  0  0
   61.7154  156.4973   -7.0718 H   0  0  0  0  0  0  0  0  0  0  0  0
   60.9572  155.0137   -7.6879 H   0  0  0  0  0  0  0  0  0  0  0  0
   58.6418  156.9021   -9.6532 H   0  0  0  0  0  0  0  0  0  0  0  0
   59.0407  158.1806   -8.4886 H   0  0  0  0  0  0  0  0  0  0  0  0
   55.4678  155.7525   -7.4257 H   0  0  0  0  0  0  0  0  0  0  0  0
   54.0555  157.3373   -3.0258 H   0  0  0  0  0  0  0  0  0  0  0  0
   56.8245  156.7437   -4.1489 H   0  0  0  0  0  0  0  0  0  0  0  0
   55.6116  155.5416   -3.7061 H   0  0  0  0  0  0  0  0  0  0  0  0
   55.0036  157.7058   -5.7799 H   0  0  0  0  0  0  0  0  0  0  0  0
   53.7085  157.2802   -7.1532 H   0  0  0  0  0  0  0  0  0  0  0  0
   52.9141  155.8758   -7.3597 H   0  0  0  0  0  0  0  0  0  0  0  0
   53.3327  156.1907   -4.7183 H   0  0  0  0  0  0  0  0  0  0  0  0
  1  2  1  0  0  0  0
  1  6  1  0  0  0  0
  2 11  1  0  0  0  0
  3  7  1  0  0  0  0
  3 10  1  0  0  0  0
  4  8  1  0  0  0  0
  4 12  1  0  0  0  0
  5 10  1  0  0  0  0
  5 12  1  0  0  0  0
  6 18  1  0  0  0  0
  7 19  1  0  0  0  0
  8 17  1  0  0  0  0
  9 12  1  0  0  0  0
  9 17  1  0  0  0  0
 10 14  1  0  0  0  0
 11 13  1  0  0  0  0
 11 18  1  0  0  0  0
 12 19  1  0  0  0  0
 13 14  1  0  0  0  0
 14 16  1  0  0  0  0
 15 16  1  0  0  0  0
  1 20  1  0  0  0  0
  1 21  1  0  0  0  0
  2 22  1  0  0  0  0
  2 23  1  0  0  0  0
  3 24  1  0  0  0  0
  3 25  1  0  0  0  0
  4 26  1  0  0  0  0
  4 27  1  0  0  0  0
  5 28  1  0  0  0  0
  5 29  1  0  0  0  0
  6 30  1  0  0  0  0
  6 31  1  0  0  0  0
  7 32  1  0  0  0  0
  7 33  1  0  0  0  0
  8 34  1  0  0  0  0
  8 35  1  0  0  0  0
  9 36  1  0  0  0  0
  9 37  1  0  0  0  0
 10 38  1  0  0  0  0
 11 39  1  0  0  0  0
 13 40  1  0  0  0  0
 13 41  1  0  0  0  0
 14 42  1  0  0  0  0
 15 43  1  0  0  0  0
 15 44  1  0  0  0  0
 16 45  1  0  0  0  0
M  END
> <FRED Chemgauss4 score>
-5.732220

$$$$
C83746260	P131008103
  -OEChem-05122015083D

 21 22  0     1  0  0  0  0  0999 V2000
   56.2445  158.7613   -2.7599 C   0  0  0  0  0  0  0  0  0  0  0  0
   53.9790  158.8573   -3.3205 C   0  0  0  0  0  0  0  0  0  0  0  0
   55.1822  160.7576   -2.9911 C   0  0  0  0  0  0  0  0  0  0  0  0
   54.5383  155.1879   -6.3607 C   0  0  0  0  0  0  0  0  0  0  0  0
   55.0852  158.0750   -3.0588 C   0  0  0  0  0  0  0  0  0  0  0  0
   54.6073  156.0051   -4.4412 C   0  0  0  0  0  0  0  0  0  0  0  0
   55.0316  156.5937   -3.0976 C   0  0  2  0  0  0  0  0  0  0  0  0
   56.3291  160.1072   -2.7170 N   0  0  0  0  0  0  0  0  0  0  0  0
   53.9917  160.2063   -3.2952 N   0  0  0  0  0  0  0  0  0  0  0  0
   55.4117  155.6285   -5.4080 N   0  0  0  0  0  0  0  0  0  0  0  0
   53.3159  155.7940   -4.8119 N   0  0  0  0  0  0  0  0  0  0  0  0
   53.2441  155.2682   -6.0442 N   0  0  0  0  0  0  0  0  0  0  0  0
   54.1627  156.0573   -2.0294 N   0  0  0  0  0  0  0  0  0  0  0  0
   57.1696  158.2378   -2.5392 H   0  0  0  0  0  0  0  0  0  0  0  0
   53.0190  158.4137   -3.5656 H   0  0  0  0  0  0  0  0  0  0  0  0
   55.2218  161.8395   -2.9626 H   0  0  0  0  0  0  0  0  0  0  0  0
   54.8728  154.7978   -7.3130 H   0  0  0  0  0  0  0  0  0  0  0  0
   56.0232  156.1595   -2.8595 H   0  0  0  0  0  0  0  0  0  0  0  0
   52.3648  155.0386   -6.4990 H   0  0  0  0  0  0  0  0  0  0  0  0
   54.1615  156.5369   -1.1646 H   0  0  0  0  0  0  0  0  0  0  0  0
   53.7932  155.1495   -2.1612 H   0  0  0  0  0  0  0  0  0  0  0  0
  1  5  1  0  0  0  0
  1  8  2  0  0  0  0
  2  5  2  0  0  0  0
  2  9  1  0  0  0  0
  3  8  1  0  0  0  0
  3  9  2  0  0  0  0
  4 10  2  0  0  0  0
  4 12  1  0  0  0  0
  5  7  1  0  0  0  0
  6  7  1  0  0  0  0
  6 10  1  0  0  0  0
  6 11  2  0  0  0  0
  7 13  1  0  0  0  0
 11 12  1  0  0  0  0
  1 14  1  0  0  0  0
  2 15  1  0  0  0  0
  3 16  1  0  0  0  0
  4 17  1  0  0  0  0
  7 18  1  0  0  0  0
 12 19  1  0  0  0  0
 13 20  1  0  0  0  0
 13 21  1  0  0  0  0
M  END
> <FRED Chemgauss4 score>
-5.731197

$$$$
C11616542	P120183584
  -OEChem-05122015083D

 20 20  0     1  0  0  0  0  0999 V2000
   54.0038  155.3843   -3.2914 C   0  0  0  0  0  0  0  0  0  0  0  0
   56.4045  153.6857   -6.7220 C   0  0  0  0  0  0  0  0  0  0  0  0
   53.2477  155.0771   -4.5568 C   0  0  2  0  0  0  0  0  0  0  0  0
   54.1975  155.5861   -5.6220 C   0  0  2  0  0  0  0  0  0  0  0  0
   55.5598  155.3234   -5.0012 C   0  0  2  0  0  0  0  0  0  0  0  0
   56.0936  153.9226   -5.2635 C   0  0  1  0  0  0  0  0  0  0  0  0
   53.5223  155.5191   -2.1781 O   0  0  0  0  0  0  0  0  0  0  0  0
   55.8497  152.8493   -7.4275 O   0  0  0  0  0  0  0  0  0  0  0  0
   55.3405  155.4784   -3.5826 O   0  0  0  0  0  0  0  0  0  0  0  0
   51.9733  155.6602   -4.6070 O   0  0  0  0  0  0  0  0  0  0  0  0
   54.0269  156.9903   -5.8150 O   0  0  0  0  0  0  0  0  0  0  0  0
   55.1011  152.9843   -4.8890 O   0  0  0  0  0  0  0  0  0  0  0  0
   57.2244  154.3017   -7.1313 H   0  0  0  0  0  0  0  0  0  0  0  0
   53.1453  153.9816   -4.6196 H   0  0  0  0  0  0  0  0  0  0  0  0
   54.0475  155.0968   -6.5974 H   0  0  0  0  0  0  0  0  0  0  0  0
   56.2991  156.0713   -5.3078 H   0  0  0  0  0  0  0  0  0  0  0  0
   56.9974  153.7461   -4.6747 H   0  0  0  0  0  0  0  0  0  0  0  0
   51.4575  155.3174   -3.8520 H   0  0  0  0  0  0  0  0  0  0  0  0
   54.6579  157.2508   -6.5028 H   0  0  0  0  0  0  0  0  0  0  0  0
   55.4749  152.0991   -5.0378 H   0  0  0  0  0  0  0  0  0  0  0  0
  1  3  1  0  0  0  0
  1  7  2  0  0  0  0
  1  9  1  0  0  0  0
  2  6  1  0  0  0  0
  2  8  2  0  0  0  0
  3  4  1  0  0  0  0
  3 10  1  0  0  0  0
  4  5  1  0  0  0  0
  4 11  1  0  0  0  0
  5  6  1  0  0  0  0
  5  9  1  0  0  0  0
  6 12  1  0  0  0  0
  2 13  1  0  0  0  0
  3 14  1  0  0  0  0
  4 15  1  0  0  0  0
  5 16  1  0  0  0  0
  6 17  1  0  0  0  0
 10 18  1  0  0  0  0
 11 19  1  0  0  0  0
 12 20  1  0  0  0  0
M  END
> <FRED Chemgauss4 score>
-5.731107

$$$$
C35423264	P52560422
  -OEChem-05122015083D

 39 39  0     1  0  0  0  0  0999 V2000
   55.3465  161.8304   -4.2551 C   0  0  0  0  0  0  0  0  0  0  0  0
   54.2278  156.2369   -2.8946 C   0  0  0  0  0  0  0  0  0  0  0  0
   57.4378  163.9736   -3.8213 C   0  0  0  0  0  0  0  0  0  0  0  0
   56.6799  165.2838   -4.0206 C   0  0  0  0  0  0  0  0  0  0  0  0
   56.4999  164.2195   -1.5756 C   0  0  0  0  0  0  0  0  0  0  0  0
   56.7134  163.1956   -2.7039 C   0  0  2  0  0  0  0  0  0  0  0  0
   57.5539  162.0142   -2.2215 C   0  0  0  0  0  0  0  0  0  0  0  0
   53.9123  161.4667   -4.5467 C   0  0  0  0  0  0  0  0  0  0  0  0
   54.8116  156.5329   -4.2801 C   0  0  0  0  0  0  0  0  0  0  0  0
   54.1915  157.6976   -5.0461 C   0  0  0  0  0  0  0  0  0  0  0  0
   54.3902  159.0250   -4.3260 C   0  0  0  0  0  0  0  0  0  0  0  0
   55.4356  162.6979   -3.1828 N   0  0  0  0  0  0  0  0  0  0  0  0
   53.8068  160.1175   -5.1522 N   0  3  0  0  0  0  0  0  0  0  0  0
   54.7134  155.2119   -2.3348 O   0  5  0  0  0  0  0  0  0  0  0  0
   56.2967  161.3969   -4.9013 O   0  0  0  0  0  0  0  0  0  0  0  0
   53.3341  157.0260   -2.4821 O   0  0  0  0  0  0  0  0  0  0  0  0
   54.7297  165.9977   -2.4023 O   0  0  0  0  0  0  0  0  0  0  0  0
   57.0887  166.7726   -1.8847 O   0  0  0  0  0  0  0  0  0  0  0  0
   56.1613  165.7798   -2.3865 S   0  0  0  0  0  0  0  0  0  0  0  0
   57.4889  163.4090   -4.7588 H   0  0  0  0  0  0  0  0  0  0  0  0
   58.4671  164.1987   -3.5135 H   0  0  0  0  0  0  0  0  0  0  0  0
   57.3055  166.0628   -4.4614 H   0  0  0  0  0  0  0  0  0  0  0  0
   55.7842  165.1371   -4.6308 H   0  0  0  0  0  0  0  0  0  0  0  0
   55.6649  163.9706   -0.9152 H   0  0  0  0  0  0  0  0  0  0  0  0
   57.4100  164.3626   -0.9834 H   0  0  0  0  0  0  0  0  0  0  0  0
   57.0227  161.4821   -1.4348 H   0  0  0  0  0  0  0  0  0  0  0  0
   58.5040  162.3740   -1.8315 H   0  0  0  0  0  0  0  0  0  0  0  0
   57.7415  161.3340   -3.0501 H   0  0  0  0  0  0  0  0  0  0  0  0
   53.4762  162.1717   -5.2599 H   0  0  0  0  0  0  0  0  0  0  0  0
   53.3285  161.4497   -3.6223 H   0  0  0  0  0  0  0  0  0  0  0  0
   55.8926  156.6940   -4.1835 H   0  0  0  0  0  0  0  0  0  0  0  0
   54.6795  155.6181   -4.8716 H   0  0  0  0  0  0  0  0  0  0  0  0
   53.1228  157.5163   -5.2139 H   0  0  0  0  0  0  0  0  0  0  0  0
   54.6593  157.7501   -6.0374 H   0  0  0  0  0  0  0  0  0  0  0  0
   55.4496  159.2623   -4.1913 H   0  0  0  0  0  0  0  0  0  0  0  0
   53.8812  159.0572   -3.3590 H   0  0  0  0  0  0  0  0  0  0  0  0
   54.5979  163.0257   -2.7194 H   0  0  0  0  0  0  0  0  0  0  0  0
   52.8159  159.9029   -5.3376 H   0  0  0  0  0  0  0  0  0  0  0  0
   54.2664  160.1204   -6.0748 H   0  0  0  0  0  0  0  0  0  0  0  0
  1  8  1  0  0  0  0
  1 12  1  0  0  0  0
  1 15  2  0  0  0  0
  2  9  1  0  0  0  0
  2 14  1  0  0  0  0
  2 16  2  0  0  0  0
  3  4  1  0  0  0  0
  3  6  1  0  0  0  0
  4 19  1  0  0  0  0
  5  6  1  0  0  0  0
  5 19  1  0  0  0  0
  6  7  1  0  0  0  0
  6 12  1  0  0  0  0
  8 13  1  0  0  0  0
  9 10  1  0  0  0  0
 10 11  1  0  0  0  0
 11 13  1  0  0  0  0
 17 19  2  0  0  0  0
 18 19  2  0  0  0  0
  3 20  1  0  0  0  0
  3 21  1  0  0  0  0
  4 22  1  0  0  0  0
  4 23  1  0  0  0  0
  5 24  1  0  0  0  0
  5 25  1  0  0  0  0
  7 26  1  0  0  0  0
  7 27  1  0  0  0  0
  7 28  1  0  0  0  0
  8 29  1  0  0  0  0
  8 30  1  0  0  0  0
  9 31  1  0  0  0  0
  9 32  1  0  0  0  0
 10 33  1  0  0  0  0
 10 34  1  0  0  0  0
 11 35  1  0  0  0  0
 11 36  1  0  0  0  0
 12 37  1  0  0  0  0
 13 38  1  0  0  0  0
 13 39  1  0  0  0  0
M  CHG  2  13   1  14  -1
M  END
> <FRED Chemgauss4 score>
-5.730056

$$$$
C03869939	P56792461
  -OEChem-05122015083D

 22 22  0     1  0  0  0  0  0999 V2000
   54.6696  156.6789   -3.3679 C   0  0  0  0  0  0  0  0  0  0  0  0
   53.7850  155.4593   -3.2316 C   0  0  2  0  0  0  0  0  0  0  0  0
   53.3504  154.8756   -4.5663 C   0  0  2  0  0  0  0  0  0  0  0  0
   54.5752  154.6334   -5.4388 C   0  0  1  0  0  0  0  0  0  0  0  0
   55.3623  155.9368   -5.5935 C   0  0  2  0  0  0  0  0  0  0  0  0
   56.7093  155.7321   -6.2785 C   0  0  0  0  0  0  0  0  0  0  0  0
   54.6208  157.6270   -2.5900 O   0  0  0  0  0  0  0  0  0  0  0  0
   55.6238  156.5970   -4.3310 O   0  0  0  0  0  0  0  0  0  0  0  0
   52.6535  155.8035   -2.4493 O   0  0  0  0  0  0  0  0  0  0  0  0
   52.4570  155.7789   -5.2132 O   0  0  0  0  0  0  0  0  0  0  0  0
   55.3977  153.6323   -4.8463 O   0  0  0  0  0  0  0  0  0  0  0  0
   57.1435  156.9746   -6.8010 O   0  0  0  0  0  0  0  0  0  0  0  0
   54.3599  154.7180   -2.6638 H   0  0  0  0  0  0  0  0  0  0  0  0
   52.8019  153.9434   -4.3882 H   0  0  0  0  0  0  0  0  0  0  0  0
   54.2730  154.2767   -6.4302 H   0  0  0  0  0  0  0  0  0  0  0  0
   54.7821  156.6417   -6.1971 H   0  0  0  0  0  0  0  0  0  0  0  0
   56.6080  155.0148   -7.0934 H   0  0  0  0  0  0  0  0  0  0  0  0
   57.4427  155.3686   -5.5583 H   0  0  0  0  0  0  0  0  0  0  0  0
   52.9852  156.0931   -1.5829 H   0  0  0  0  0  0  0  0  0  0  0  0
   52.2089  155.3658   -6.0547 H   0  0  0  0  0  0  0  0  0  0  0  0
   54.8559  152.8302   -4.7837 H   0  0  0  0  0  0  0  0  0  0  0  0
   58.0014  156.8189   -7.2315 H   0  0  0  0  0  0  0  0  0  0  0  0
  1  2  1  0  0  0  0
  1  7  2  0  0  0  0
  1  8  1  0  0  0  0
  2  3  1  0  0  0  0
  2  9  1  0  0  0  0
  3  4  1  0  0  0  0
  3 10  1  0  0  0  0
  4  5  1  0  0  0  0
  4 11  1  0  0  0  0
  5  6  1  0  0  0  0
  5  8  1  0  0  0  0
  6 12  1  0  0  0  0
  2 13  1  0  0  0  0
  3 14  1  0  0  0  0
  4 15  1  0  0  0  0
  5 16  1  0  0  0  0
  6 17  1  0  0  0  0
  6 18  1  0  0  0  0
  9 19  1  0  0  0  0
 10 20  1  0  0  0  0
 11 21  1  0  0  0  0
 12 22  1  0  0  0  0
M  END
> <FRED Chemgauss4 score>
-5.727849

$$$$
C83937285	P131339710
  -OEChem-05122015083D

 28 29  0     1  0  0  0  0  0999 V2000
   55.9551  155.4888   -6.5967 C   0  0  0  0  0  0  0  0  0  0  0  0
   55.5317  154.7424   -5.5160 C   0  0  0  0  0  0  0  0  0  0  0  0
   56.0215  156.8518   -6.3915 C   0  0  0  0  0  0  0  0  0  0  0  0
   55.3031  156.6150   -4.2479 C   0  0  0  0  0  0  0  0  0  0  0  0
   56.9995  159.6729   -0.2633 C   0  0  0  0  0  0  0  0  0  0  0  0
   58.3375  159.4686   -0.9171 C   0  0  0  0  0  0  0  0  0  0  0  0
   57.1173  158.7890   -1.4740 C   0  0  0  0  0  0  0  0  0  0  0  0
   56.5337  159.2336   -2.8063 C   0  0  0  0  0  0  0  0  0  0  0  0
   55.0778  158.7813   -2.9581 C   0  0  0  0  0  0  0  0  0  0  0  0
   54.9351  157.2508   -2.9220 C   0  0  1  0  0  0  0  0  0  0  0  0
   55.1965  155.2747   -4.3224 N   0  0  0  0  0  0  0  0  0  0  0  0
   55.7016  157.4509   -5.2257 N   0  0  0  0  0  0  0  0  0  0  0  0
   53.5964  156.8420   -2.5652 N   0  0  0  0  0  0  0  0  0  0  0  0
   56.2178  155.0351   -7.5428 H   0  0  0  0  0  0  0  0  0  0  0  0
   55.4478  153.6628   -5.5821 H   0  0  0  0  0  0  0  0  0  0  0  0
   56.3435  157.5201   -7.1831 H   0  0  0  0  0  0  0  0  0  0  0  0
   56.8356  159.2111    0.7025 H   0  0  0  0  0  0  0  0  0  0  0  0
   56.5197  160.6359   -0.3874 H   0  0  0  0  0  0  0  0  0  0  0  0
   58.7549  160.2950   -1.4792 H   0  0  0  0  0  0  0  0  0  0  0  0
   59.0694  158.8699   -0.3891 H   0  0  0  0  0  0  0  0  0  0  0  0
   57.0262  157.7196   -1.3267 H   0  0  0  0  0  0  0  0  0  0  0  0
   56.6007  160.3251   -2.8766 H   0  0  0  0  0  0  0  0  0  0  0  0
   57.1394  158.8171   -3.6196 H   0  0  0  0  0  0  0  0  0  0  0  0
   54.4837  159.2214   -2.1464 H   0  0  0  0  0  0  0  0  0  0  0  0
   54.6750  159.1822   -3.8974 H   0  0  0  0  0  0  0  0  0  0  0  0
   55.5851  156.8557   -2.1313 H   0  0  0  0  0  0  0  0  0  0  0  0
   53.0793  157.3968   -1.9065 H   0  0  0  0  0  0  0  0  0  0  0  0
   53.2880  155.9196   -2.8164 H   0  0  0  0  0  0  0  0  0  0  0  0
  1  2  1  0  0  0  0
  1  3  2  0  0  0  0
  2 11  2  0  0  0  0
  3 12  1  0  0  0  0
  4 10  1  0  0  0  0
  4 11  1  0  0  0  0
  4 12  2  0  0  0  0
  5  6  1  0  0  0  0
  5  7  1  0  0  0  0
  6  7  1  0  0  0  0
  7  8  1  0  0  0  0
  8  9  1  0  0  0  0
  9 10  1  0  0  0  0
 10 13  1  0  0  0  0
  1 14  1  0  0  0  0
  2 15  1  0  0  0  0
  3 16  1  0  0  0  0
  5 17  1  0  0  0  0
  5 18  1  0  0  0  0
  6 19  1  0  0  0  0
  6 20  1  0  0  0  0
  7 21  1  0  0  0  0
  8 22  1  0  0  0  0
  8 23  1  0  0  0  0
  9 24  1  0  0  0  0
  9 25  1  0  0  0  0
 10 26  1  0  0  0  0
 13 27  1  0  0  0  0
 13 28  1  0  0  0  0
M  END
> <FRED Chemgauss4 score>
-5.727787

$$$$
C87121135	P136358271
  -OEChem-05122015083D

 36 36  0     1  0  0  0  0  0999 V2000
   56.2430  154.0159   -6.4498 C   0  0  0  0  0  0  0  0  0  0  0  0
   55.3682  154.1976   -5.2118 C   0  0  0  0  0  0  0  0  0  0  0  0
   57.5549  154.7853   -6.3300 C   0  0  0  0  0  0  0  0  0  0  0  0
   56.4371  156.4478   -4.7881 C   0  0  0  0  0  0  0  0  0  0  0  0
   55.1135  155.6806   -4.9115 C   0  0  2  0  0  0  0  0  0  0  0  0
   57.3116  156.2634   -6.0291 C   0  0  1  0  0  0  0  0  0  0  0  0
   53.9992  157.3202   -3.3793 C   0  0  0  0  0  0  0  0  0  0  0  0
   59.6510  156.8746   -7.4009 C   0  0  0  0  0  0  0  0  0  0  0  0
   52.9832  155.0180   -3.7580 C   0  0  0  0  0  0  0  0  0  0  0  0
   54.2783  155.8380   -3.6422 C   0  0  1  0  0  0  0  0  0  0  0  0
   52.1675  155.4014   -4.8806 N   0  0  0  0  0  0  0  0  0  0  0  0
   59.6285  156.4127   -4.8282 O   0  0  0  0  0  0  0  0  0  0  0  0
   58.5664  158.5320   -5.6954 O   0  0  0  0  0  0  0  0  0  0  0  0
   55.0475  155.3413   -2.5429 O   0  0  0  0  0  0  0  0  0  0  0  0
   58.8532  157.1166   -5.8322 S   0  0  0  0  0  0  0  0  0  0  0  0
   56.4530  152.9507   -6.5989 H   0  0  0  0  0  0  0  0  0  0  0  0
   55.6969  154.3609   -7.3364 H   0  0  0  0  0  0  0  0  0  0  0  0
   54.4148  153.6778   -5.3640 H   0  0  0  0  0  0  0  0  0  0  0  0
   55.8564  153.7208   -4.3522 H   0  0  0  0  0  0  0  0  0  0  0  0
   58.1673  154.3374   -5.5368 H   0  0  0  0  0  0  0  0  0  0  0  0
   58.1271  154.6799   -7.2595 H   0  0  0  0  0  0  0  0  0  0  0  0
   56.2341  157.5154   -4.6354 H   0  0  0  0  0  0  0  0  0  0  0  0
   56.9822  156.1080   -3.8972 H   0  0  0  0  0  0  0  0  0  0  0  0
   54.5424  156.1093   -5.7458 H   0  0  0  0  0  0  0  0  0  0  0  0
   56.8246  156.7356   -6.8911 H   0  0  0  0  0  0  0  0  0  0  0  0
   53.4005  157.4616   -2.4727 H   0  0  0  0  0  0  0  0  0  0  0  0
   53.4141  157.7545   -4.1984 H   0  0  0  0  0  0  0  0  0  0  0  0
   54.9275  157.8917   -3.2777 H   0  0  0  0  0  0  0  0  0  0  0  0
   60.6218  157.3721   -7.3740 H   0  0  0  0  0  0  0  0  0  0  0  0
   59.7750  155.8027   -7.5624 H   0  0  0  0  0  0  0  0  0  0  0  0
   59.0204  157.3083   -8.1784 H   0  0  0  0  0  0  0  0  0  0  0  0
   53.2086  153.9550   -3.8969 H   0  0  0  0  0  0  0  0  0  0  0  0
   52.3683  155.1273   -2.8582 H   0  0  0  0  0  0  0  0  0  0  0  0
   51.1767  155.2247   -4.8491 H   0  0  0  0  0  0  0  0  0  0  0  0
   52.6139  155.6471   -5.7490 H   0  0  0  0  0  0  0  0  0  0  0  0
   54.4964  155.4528   -1.7547 H   0  0  0  0  0  0  0  0  0  0  0  0
  1  2  1  0  0  0  0
  1  3  1  0  0  0  0
  2  5  1  0  0  0  0
  3  6  1  0  0  0  0
  4  5  1  0  0  0  0
  4  6  1  0  0  0  0
  5 10  1  0  0  0  0
  6 15  1  0  0  0  0
  7 10  1  0  0  0  0
  8 15  1  0  0  0  0
  9 10  1  0  0  0  0
  9 11  1  0  0  0  0
 10 14  1  0  0  0  0
 12 15  2  0  0  0  0
 13 15  2  0  0  0  0
  1 16  1  0  0  0  0
  1 17  1  0  0  0  0
  2 18  1  0  0  0  0
  2 19  1  0  0  0  0
  3 20  1  0  0  0  0
  3 21  1  0  0  0  0
  4 22  1  0  0  0  0
  4 23  1  0  0  0  0
  5 24  1  0  0  0  0
  6 25  1  0  0  0  0
  7 26  1  0  0  0  0
  7 27  1  0  0  0  0
  7 28  1  0  0  0  0
  8 29  1  0  0  0  0
  8 30  1  0  0  0  0
  8 31  1  0  0  0  0
  9 32  1  0  0  0  0
  9 33  1  0  0  0  0
 11 34  1  0  0  0  0
 11 35  1  0  0  0  0
 14 36  1  0  0  0  0
M  END
> <FRED Chemgauss4 score>
-5.725917

$$$$
C22113380	P59990568
  -OEChem-05122015083D

 15 14  0     1  0  0  0  0  0999 V2000
   56.2248  157.2834   -4.9921 C   0  0  0  0  0  0  0  0  0  0  0  0
   54.2899  155.7786   -5.6020 C   0  0  0  0  0  0  0  0  0  0  0  0
   55.6364  158.3092   -4.4441 N   0  0  0  0  0  0  0  0  0  0  0  0
   53.5602  155.2789   -6.5466 N   0  0  0  0  0  0  0  0  0  0  0  0
   57.5804  157.0837   -4.9131 N   0  0  0  0  0  0  0  0  0  0  0  0
   55.5690  156.2923   -5.7042 N   0  0  0  0  0  0  0  0  0  0  0  0
   53.4992  157.2298   -3.5270 O   0  0  0  0  0  0  0  0  0  0  0  0
   52.0924  155.2884   -4.3981 O   0  0  0  0  0  0  0  0  0  0  0  0
   53.5475  155.7842   -3.9245 S   0  0  1  0  0  0  0  0  0  0  0  0
   54.6296  158.2486   -4.6323 H   0  0  0  0  0  0  0  0  0  0  0  0
   54.0768  155.3215   -7.4312 H   0  0  0  0  0  0  0  0  0  0  0  0
   58.1808  157.7352   -4.4194 H   0  0  0  0  0  0  0  0  0  0  0  0
   58.0256  156.2809   -5.3442 H   0  0  0  0  0  0  0  0  0  0  0  0
   56.1392  155.8678   -6.4338 H   0  0  0  0  0  0  0  0  0  0  0  0
   51.4392  155.3920   -3.6668 H   0  0  0  0  0  0  0  0  0  0  0  0
  1  3  2  0  0  0  0
  1  5  1  0  0  0  0
  1  6  1  0  0  0  0
  2  4  2  0  0  0  0
  2  6  1  0  0  0  0
  2  9  1  0  0  0  0
  7  9  2  0  0  0  0
  8  9  1  0  0  0  0
  3 10  1  0  0  0  0
  4 11  1  0  0  0  0
  5 12  1  0  0  0  0
  5 13  1  0  0  0  0
  6 14  1  0  0  0  0
  8 15  1  0  0  0  0
M  END
> <FRED Chemgauss4 score>
-5.723373

$$$$
C36896014	P54845933
  -OEChem-05122015083D

 42 44  0     1  0  0  0  0  0999 V2000
   55.1337  164.2718   -3.3379 C   0  0  0  0  0  0  0  0  0  0  0  0
   56.2716  164.0896   -2.5486 C   0  0  0  0  0  0  0  0  0  0  0  0
   54.4950  163.1833   -3.9451 C   0  0  0  0  0  0  0  0  0  0  0  0
   56.8122  162.8169   -2.3372 C   0  0  0  0  0  0  0  0  0  0  0  0
   56.6688  155.8076   -6.5646 C   0  0  0  0  0  0  0  0  0  0  0  0
   56.0542  154.3119   -5.1805 C   0  0  0  0  0  0  0  0  0  0  0  0
   55.0246  161.8975   -3.7435 C   0  0  0  0  0  0  0  0  0  0  0  0
   56.1597  161.7477   -2.9518 C   0  0  0  0  0  0  0  0  0  0  0  0
   55.9199  156.4674   -5.6189 C   0  0  0  0  0  0  0  0  0  0  0  0
   55.4454  159.8041   -3.7309 C   0  0  0  0  0  0  0  0  0  0  0  0
   58.3466  160.7676   -1.5183 C   0  0  0  0  0  0  0  0  0  0  0  0
   58.3688  158.9779   -3.3005 C   0  0  0  0  0  0  0  0  0  0  0  0
   57.0235  158.6842   -1.2334 C   0  0  0  0  0  0  0  0  0  0  0  0
   55.5305  157.9192   -5.4575 C   0  0  0  0  0  0  0  0  0  0  0  0
   55.4131  158.3448   -3.9593 C   0  0  2  0  0  0  0  0  0  0  0  0
   57.4894  159.7298   -2.2766 C   0  0  0  0  0  0  0  0  0  0  0  0
   56.7484  154.4660   -6.2861 N   0  0  0  0  0  0  0  0  0  0  0  0
   54.5952  160.6795   -4.2186 N   0  0  0  0  0  0  0  0  0  0  0  0
   55.5327  155.4961   -4.7392 N   0  0  0  0  0  0  0  0  0  0  0  0
   56.4062  160.3987   -2.9612 N   0  0  0  0  0  0  0  0  0  0  0  0
   54.1955  157.7124   -3.3924 N   0  0  0  0  0  0  0  0  0  0  0  0
   54.7362  165.2731   -3.4825 H   0  0  0  0  0  0  0  0  0  0  0  0
   56.7472  164.9531   -2.0898 H   0  0  0  0  0  0  0  0  0  0  0  0
   53.6110  163.3356   -4.5557 H   0  0  0  0  0  0  0  0  0  0  0  0
   57.6950  162.6763   -1.7238 H   0  0  0  0  0  0  0  0  0  0  0  0
   57.1558  156.2282   -7.4328 H   0  0  0  0  0  0  0  0  0  0  0  0
   55.8921  153.3817   -4.6547 H   0  0  0  0  0  0  0  0  0  0  0  0
   57.7454  161.3162   -0.7841 H   0  0  0  0  0  0  0  0  0  0  0  0
   59.1731  160.3026   -0.9705 H   0  0  0  0  0  0  0  0  0  0  0  0
   58.7805  161.4990   -2.2101 H   0  0  0  0  0  0  0  0  0  0  0  0
   57.8020  158.2291   -3.8639 H   0  0  0  0  0  0  0  0  0  0  0  0
   58.8010  159.6688   -4.0335 H   0  0  0  0  0  0  0  0  0  0  0  0
   59.1952  158.4584   -2.8015 H   0  0  0  0  0  0  0  0  0  0  0  0
   56.4048  157.9091   -1.7019 H   0  0  0  0  0  0  0  0  0  0  0  0
   57.8732  158.1746   -0.7646 H   0  0  0  0  0  0  0  0  0  0  0  0
   56.4175  159.1438   -0.4439 H   0  0  0  0  0  0  0  0  0  0  0  0
   54.5803  158.0690   -5.9891 H   0  0  0  0  0  0  0  0  0  0  0  0
   56.2578  158.5560   -5.9783 H   0  0  0  0  0  0  0  0  0  0  0  0
   56.2535  157.8513   -3.4250 H   0  0  0  0  0  0  0  0  0  0  0  0
   54.9655  155.6263   -3.9117 H   0  0  0  0  0  0  0  0  0  0  0  0
   53.8575  158.0805   -2.5427 H   0  0  0  0  0  0  0  0  0  0  0  0
   53.9211  156.8488   -3.7806 H   0  0  0  0  0  0  0  0  0  0  0  0
  1  2  1  0  0  0  0
  1  3  2  0  0  0  0
  2  4  2  0  0  0  0
  3  7  1  0  0  0  0
  4  8  1  0  0  0  0
  5  9  2  0  0  0  0
  5 17  1  0  0  0  0
  6 17  2  0  0  0  0
  6 19  1  0  0  0  0
  7  8  2  0  0  0  0
  7 18  1  0  0  0  0
  8 20  1  0  0  0  0
  9 14  1  0  0  0  0
  9 19  1  0  0  0  0
 10 15  1  0  0  0  0
 10 18  2  0  0  0  0
 10 20  1  0  0  0  0
 11 16  1  0  0  0  0
 12 16  1  0  0  0  0
 13 16  1  0  0  0  0
 14 15  1  0  0  0  0
 15 21  1  0  0  0  0
 16 20  1  0  0  0  0
  1 22  1  0  0  0  0
  2 23  1  0  0  0  0
  3 24  1  0  0  0  0
  4 25  1  0  0  0  0
  5 26  1  0  0  0  0
  6 27  1  0  0  0  0
 11 28  1  0  0  0  0
 11 29  1  0  0  0  0
 11 30  1  0  0  0  0
 12 31  1  0  0  0  0
 12 32  1  0  0  0  0
 12 33  1  0  0  0  0
 13 34  1  0  0  0  0
 13 35  1  0  0  0  0
 13 36  1  0  0  0  0
 14 37  1  0  0  0  0
 14 38  1  0  0  0  0
 15 39  1  0  0  0  0
 19 40  1  0  0  0  0
 21 41  1  0  0  0  0
 21 42  1  0  0  0  0
M  END
> <FRED Chemgauss4 score>
-5.721586

$$$$
C00392817	P06167783
  -OEChem-05122015083D

 24 24  0     1  0  0  0  0  0999 V2000
   54.2545  156.5015   -3.6464 C   0  0  0  0  0  0  0  0  0  0  0  0
   56.5532  156.0480   -5.3463 C   0  0  0  0  0  0  0  0  0  0  0  0
   54.1630  155.5260   -4.8053 C   0  0  1  0  0  0  0  0  0  0  0  0
   56.2052  157.4469   -4.8517 C   0  0  2  0  0  0  0  0  0  0  0  0
   57.4556  158.2578   -4.5388 C   0  0  0  0  0  0  0  0  0  0  0  0
   55.6978  153.7449   -5.6393 C   0  0  0  0  0  0  0  0  0  0  0  0
   53.3499  156.0902   -5.9630 C   0  0  0  0  0  0  0  0  0  0  0  0
   55.3682  157.3154   -3.6733 N   0  0  0  0  0  0  0  0  0  0  0  0
   55.5174  155.1201   -5.1954 N   0  0  0  0  0  0  0  0  0  0  0  0
   53.3550  156.6138   -2.8153 O   0  0  0  0  0  0  0  0  0  0  0  0
   57.6171  155.8128   -5.9196 O   0  0  0  0  0  0  0  0  0  0  0  0
   51.9731  155.9288   -5.6708 O   0  0  0  0  0  0  0  0  0  0  0  0
   53.6577  154.6344   -4.4121 H   0  0  0  0  0  0  0  0  0  0  0  0
   55.6258  157.9585   -5.6265 H   0  0  0  0  0  0  0  0  0  0  0  0
   58.0418  157.7579   -3.7674 H   0  0  0  0  0  0  0  0  0  0  0  0
   57.1779  159.2504   -4.1835 H   0  0  0  0  0  0  0  0  0  0  0  0
   58.0674  158.3619   -5.4354 H   0  0  0  0  0  0  0  0  0  0  0  0
   56.1052  153.1381   -4.8265 H   0  0  0  0  0  0  0  0  0  0  0  0
   56.3887  153.7086   -6.4860 H   0  0  0  0  0  0  0  0  0  0  0  0
   54.7399  153.3194   -5.9501 H   0  0  0  0  0  0  0  0  0  0  0  0
   53.5865  155.5541   -6.8831 H   0  0  0  0  0  0  0  0  0  0  0  0
   53.5673  157.1514   -6.0915 H   0  0  0  0  0  0  0  0  0  0  0  0
   55.6109  157.8411   -2.8388 H   0  0  0  0  0  0  0  0  0  0  0  0
   51.4776  156.2955   -6.4226 H   0  0  0  0  0  0  0  0  0  0  0  0
  1  3  1  0  0  0  0
  1  8  1  0  0  0  0
  1 10  2  0  0  0  0
  2  4  1  0  0  0  0
  2  9  1  0  0  0  0
  2 11  2  0  0  0  0
  3  7  1  0  0  0  0
  3  9  1  0  0  0  0
  4  5  1  0  0  0  0
  4  8  1  0  0  0  0
  6  9  1  0  0  0  0
  7 12  1  0  0  0  0
  3 13  1  0  0  0  0
  4 14  1  0  0  0  0
  5 15  1  0  0  0  0
  5 16  1  0  0  0  0
  5 17  1  0  0  0  0
  6 18  1  0  0  0  0
  6 19  1  0  0  0  0
  6 20  1  0  0  0  0
  7 21  1  0  0  0  0
  7 22  1  0  0  0  0
  8 23  1  0  0  0  0
 12 24  1  0  0  0  0
M  END
> <FRED Chemgauss4 score>
-5.718427

$$$$
C00162126	P05572008
  -OEChem-05122015083D

 28 28  0     1  0  0  0  0  0999 V2000
   56.0680  154.2297   -5.6358 C   0  0  0  0  0  0  0  0  0  0  0  0
   57.1415  156.7002   -6.6428 C   0  0  0  0  0  0  0  0  0  0  0  0
   55.8853  155.5219   -4.8514 C   0  0  2  0  0  0  0  0  0  0  0  0
   57.9912  155.4367   -6.6456 C   0  0  2  0  0  0  0  0  0  0  0  0
   54.5316  155.5819   -4.1625 C   0  0  0  0  0  0  0  0  0  0  0  0
   58.8867  155.3572   -7.8715 C   0  0  0  0  0  0  0  0  0  0  0  0
   54.5096  156.6201   -3.0521 C   0  0  0  0  0  0  0  0  0  0  0  0
   60.0237  154.3672   -7.6759 C   0  0  0  0  0  0  0  0  0  0  0  0
   56.0450  156.6158   -5.7982 N   0  0  0  0  0  0  0  0  0  0  0  0
   57.0714  154.3101   -6.5894 N   0  0  0  0  0  0  0  0  0  0  0  0
   55.4704  153.1886   -5.3740 O   0  0  0  0  0  0  0  0  0  0  0  0
   57.4564  157.7292   -7.2358 O   0  0  0  0  0  0  0  0  0  0  0  0
   53.2255  156.6126   -2.4440 O   0  0  0  0  0  0  0  0  0  0  0  0
   60.7988  154.7755   -6.5572 O   0  0  0  0  0  0  0  0  0  0  0  0
   56.6901  155.5950   -4.1106 H   0  0  0  0  0  0  0  0  0  0  0  0
   58.5978  155.4251   -5.7326 H   0  0  0  0  0  0  0  0  0  0  0  0
   54.2809  154.5970   -3.7524 H   0  0  0  0  0  0  0  0  0  0  0  0
   53.7517  155.8109   -4.8977 H   0  0  0  0  0  0  0  0  0  0  0  0
   59.2951  156.3489   -8.0966 H   0  0  0  0  0  0  0  0  0  0  0  0
   58.2925  155.0691   -8.7461 H   0  0  0  0  0  0  0  0  0  0  0  0
   55.2586  156.3912   -2.2873 H   0  0  0  0  0  0  0  0  0  0  0  0
   54.7011  157.6220   -3.4493 H   0  0  0  0  0  0  0  0  0  0  0  0
   59.6379  153.3608   -7.4838 H   0  0  0  0  0  0  0  0  0  0  0  0
   60.6726  154.3374   -8.5570 H   0  0  0  0  0  0  0  0  0  0  0  0
   55.3325  157.3384   -5.8415 H   0  0  0  0  0  0  0  0  0  0  0  0
   57.1673  153.5609   -7.2685 H   0  0  0  0  0  0  0  0  0  0  0  0
   53.2435  157.2833   -1.7421 H   0  0  0  0  0  0  0  0  0  0  0  0
   61.5137  154.1258   -6.4590 H   0  0  0  0  0  0  0  0  0  0  0  0
  1  3  1  0  0  0  0
  1 10  1  0  0  0  0
  1 11  2  0  0  0  0
  2  4  1  0  0  0  0
  2  9  1  0  0  0  0
  2 12  2  0  0  0  0
  3  5  1  0  0  0  0
  3  9  1  0  0  0  0
  4  6  1  0  0  0  0
  4 10  1  0  0  0  0
  5  7  1  0  0  0  0
  6  8  1  0  0  0  0
  7 13  1  0  0  0  0
  8 14  1  0  0  0  0
  3 15  1  0  0  0  0
  4 16  1  0  0  0  0
  5 17  1  0  0  0  0
  5 18  1  0  0  0  0
  6 19  1  0  0  0  0
  6 20  1  0  0  0  0
  7 21  1  0  0  0  0
  7 22  1  0  0  0  0
  8 23  1  0  0  0  0
  8 24  1  0  0  0  0
  9 25  1  0  0  0  0
 10 26  1  0  0  0  0
 13 27  1  0  0  0  0
 14 28  1  0  0  0  0
M  END
> <FRED Chemgauss4 score>
-5.708988

$$$$
C48630575	P72706512
  -OEChem-05122015083D

 28 28  0     1  0  0  0  0  0999 V2000
   53.9398  156.2558   -4.0046 C   0  0  0  0  0  0  0  0  0  0  0  0
   53.7908  156.0063   -6.0717 C   0  0  0  0  0  0  0  0  0  0  0  0
   53.9836  155.9379   -7.5291 C   0  0  0  0  0  0  0  0  0  0  0  0
   56.1129  158.1103   -1.2359 C   0  0  0  0  0  0  0  0  0  0  0  0
   54.9602  159.0564   -3.2452 C   0  0  0  0  0  0  0  0  0  0  0  0
   56.7912  157.3988   -3.5297 C   0  0  0  0  0  0  0  0  0  0  0  0
   54.5305  156.5982   -2.6408 C   0  0  2  0  0  0  0  0  0  0  0  0
   55.5794  157.7755   -2.6429 C   0  0  0  0  0  0  0  0  0  0  0  0
   54.6499  156.4029   -5.1617 N   0  0  0  0  0  0  0  0  0  0  0  0
   52.6954  155.7932   -4.1415 N   0  0  0  0  0  0  0  0  0  0  0  0
   52.6253  155.6419   -5.4728 N   0  0  0  0  0  0  0  0  0  0  0  0
   55.0661  155.3904   -1.9902 N   0  0  0  0  0  0  0  0  0  0  0  0
   54.3841  154.9560   -7.8356 H   0  0  0  0  0  0  0  0  0  0  0  0
   53.0415  156.0993   -8.0836 H   0  0  0  0  0  0  0  0  0  0  0  0
   54.6841  156.7106   -7.8949 H   0  0  0  0  0  0  0  0  0  0  0  0
   56.5661  157.2370   -0.7554 H   0  0  0  0  0  0  0  0  0  0  0  0
   56.8829  158.8895   -1.2856 H   0  0  0  0  0  0  0  0  0  0  0  0
   55.3230  158.4893   -0.5805 H   0  0  0  0  0  0  0  0  0  0  0  0
   54.5648  158.8694   -4.2506 H   0  0  0  0  0  0  0  0  0  0  0  0
   55.6976  159.8604   -3.3391 H   0  0  0  0  0  0  0  0  0  0  0  0
   54.1320  159.4224   -2.6282 H   0  0  0  0  0  0  0  0  0  0  0  0
   56.4730  157.1493   -4.5480 H   0  0  0  0  0  0  0  0  0  0  0  0
   57.5025  158.2302   -3.6015 H   0  0  0  0  0  0  0  0  0  0  0  0
   57.3432  156.5434   -3.1267 H   0  0  0  0  0  0  0  0  0  0  0  0
   53.6916  156.9175   -2.0058 H   0  0  0  0  0  0  0  0  0  0  0  0
   51.7688  155.2932   -5.8870 H   0  0  0  0  0  0  0  0  0  0  0  0
   54.6164  154.5290   -2.1853 H   0  0  0  0  0  0  0  0  0  0  0  0
   55.7058  155.5193   -1.2441 H   0  0  0  0  0  0  0  0  0  0  0  0
  1  7  1  0  0  0  0
  1  9  1  0  0  0  0
  1 10  2  0  0  0  0
  2  3  1  0  0  0  0
  2  9  2  0  0  0  0
  2 11  1  0  0  0  0
  4  8  1  0  0  0  0
  5  8  1  0  0  0  0
  6  8  1  0  0  0  0
  7  8  1  0  0  0  0
  7 12  1  0  0  0  0
 10 11  1  0  0  0  0
  3 13  1  0  0  0  0
  3 14  1  0  0  0  0
  3 15  1  0  0  0  0
  4 16  1  0  0  0  0
  4 17  1  0  0  0  0
  4 18  1  0  0  0  0
  5 19  1  0  0  0  0
  5 20  1  0  0  0  0
  5 21  1  0  0  0  0
  6 22  1  0  0  0  0
  6 23  1  0  0  0  0
  6 24  1  0  0  0  0
  7 25  1  0  0  0  0
 11 26  1  0  0  0  0
 12 27  1  0  0  0  0
 12 28  1  0  0  0  0
M  END
> <FRED Chemgauss4 score>
-5.705801

$$$$
C39113937	P59254497
  -OEChem-05122015083D

 22 22  0     1  0  0  0  0  0999 V2000
   56.0119  155.9406   -5.2650 C   0  0  0  0  0  0  0  0  0  0  0  0
   53.9404  156.1615   -3.2294 C   0  0  0  0  0  0  0  0  0  0  0  0
   55.8354  157.2051   -4.4468 C   0  0  2  0  0  0  0  0  0  0  0  0
   53.6953  155.4238   -4.5316 C   0  0  2  0  0  0  0  0  0  0  0  0
   55.4705  157.6902   -2.0353 C   0  0  0  0  0  0  0  0  0  0  0  0
   54.9703  153.7947   -5.9105 C   0  0  0  0  0  0  0  0  0  0  0  0
   55.1080  156.9212   -3.2160 N   0  0  0  0  0  0  0  0  0  0  0  0
   54.9526  155.0417   -5.1611 N   0  0  0  0  0  0  0  0  0  0  0  0
   56.9768  155.8110   -6.0186 O   0  0  0  0  0  0  0  0  0  0  0  0
   53.1043  156.1358   -2.3262 O   0  0  0  0  0  0  0  0  0  0  0  0
   55.1482  158.1817   -5.2017 O   0  0  0  0  0  0  0  0  0  0  0  0
   52.9134  156.2077   -5.4079 O   0  0  0  0  0  0  0  0  0  0  0  0
   56.8267  157.6209   -4.1739 H   0  0  0  0  0  0  0  0  0  0  0  0
   53.1222  154.4847   -4.3235 H   0  0  0  0  0  0  0  0  0  0  0  0
   56.0844  157.0827   -1.3652 H   0  0  0  0  0  0  0  0  0  0  0  0
   54.5714  158.0061   -1.4993 H   0  0  0  0  0  0  0  0  0  0  0  0
   56.0377  158.5795   -2.3229 H   0  0  0  0  0  0  0  0  0  0  0  0
   55.4462  153.0079   -5.3195 H   0  0  0  0  0  0  0  0  0  0  0  0
   55.5285  153.9215   -6.8421 H   0  0  0  0  0  0  0  0  0  0  0  0
   53.9502  153.4847   -6.1526 H   0  0  0  0  0  0  0  0  0  0  0  0
   55.6852  158.3637   -5.9922 H   0  0  0  0  0  0  0  0  0  0  0  0
   52.0680  156.3830   -4.9594 H   0  0  0  0  0  0  0  0  0  0  0  0
  1  3  1  0  0  0  0
  1  8  1  0  0  0  0
  1  9  2  0  0  0  0
  2  4  1  0  0  0  0
  2  7  1  0  0  0  0
  2 10  2  0  0  0  0
  3  7  1  0  0  0  0
  3 11  1  0  0  0  0
  4  8  1  0  0  0  0
  4 12  1  0  0  0  0
  5  7  1  0  0  0  0
  6  8  1  0  0  0  0
  3 13  1  0  0  0  0
  4 14  1  0  0  0  0
  5 15  1  0  0  0  0
  5 16  1  0  0  0  0
  5 17  1  0  0  0  0
  6 18  1  0  0  0  0
  6 19  1  0  0  0  0
  6 20  1  0  0  0  0
 11 21  1  0  0  0  0
 12 22  1  0  0  0  0
M  END
> <FRED Chemgauss4 score>
-5.704045

$$$$
C95869931	P150894235
  -OEChem-05122015083D

 32 33  0     1  0  0  0  0  0999 V2000
   55.8852  154.6677   -6.6963 C   0  0  0  0  0  0  0  0  0  0  0  0
   57.6394  156.0486   -5.6084 C   0  0  0  0  0  0  0  0  0  0  0  0
   58.1181  154.0376   -6.6742 C   0  0  0  0  0  0  0  0  0  0  0  0
   53.6006  155.6394   -6.9356 C   0  0  0  0  0  0  0  0  0  0  0  0
   56.1948  155.6119   -5.5602 C   0  0  1  0  0  0  0  0  0  0  0  0
   53.9042  156.4446   -5.6700 C   0  0  1  0  0  0  0  0  0  0  0  0
   52.9734  157.9022   -3.1574 C   0  0  0  0  0  0  0  0  0  0  0  0
   53.4217  155.7337   -4.4024 C   0  0  1  0  0  0  0  0  0  0  0  0
   53.6924  156.5583   -3.1397 C   0  0  2  0  0  0  0  0  0  0  0  0
   56.8353  153.9193   -7.1739 N   0  0  0  0  0  0  0  0  0  0  0  0
   58.5195  155.0490   -5.9476 N   0  0  0  0  0  0  0  0  0  0  0  0
   54.5890  154.6037   -7.1596 N   0  0  0  0  0  0  0  0  0  0  0  0
   55.3318  156.7920   -5.6244 N   0  0  0  0  0  0  0  0  0  0  0  0
   59.0090  153.0393   -6.9896 N   0  0  0  0  0  0  0  0  0  0  0  0
   58.0013  157.1765   -5.2846 O   0  0  0  0  0  0  0  0  0  0  0  0
   52.0242  155.4916   -4.5285 O   0  0  0  0  0  0  0  0  0  0  0  0
   53.2809  155.8425   -1.9768 O   0  0  0  0  0  0  0  0  0  0  0  0
   52.6015  155.1929   -6.8901 H   0  0  0  0  0  0  0  0  0  0  0  0
   53.6154  156.3096   -7.8035 H   0  0  0  0  0  0  0  0  0  0  0  0
   56.0594  155.0743   -4.6140 H   0  0  0  0  0  0  0  0  0  0  0  0
   53.3454  157.3837   -5.7346 H   0  0  0  0  0  0  0  0  0  0  0  0
   51.8914  157.7715   -3.2524 H   0  0  0  0  0  0  0  0  0  0  0  0
   53.1809  158.4809   -2.2509 H   0  0  0  0  0  0  0  0  0  0  0  0
   53.3260  158.5086   -3.9990 H   0  0  0  0  0  0  0  0  0  0  0  0
   53.9244  154.7657   -4.3229 H   0  0  0  0  0  0  0  0  0  0  0  0
   54.7697  156.7341   -3.0437 H   0  0  0  0  0  0  0  0  0  0  0  0
   54.3691  153.9219   -7.8807 H   0  0  0  0  0  0  0  0  0  0  0  0
   55.5067  157.3787   -4.8083 H   0  0  0  0  0  0  0  0  0  0  0  0
   58.6894  152.2900   -7.5554 H   0  0  0  0  0  0  0  0  0  0  0  0
   59.9337  153.1103   -6.6381 H   0  0  0  0  0  0  0  0  0  0  0  0
   51.7459  155.0422   -3.7151 H   0  0  0  0  0  0  0  0  0  0  0  0
   53.5308  156.3878   -1.2152 H   0  0  0  0  0  0  0  0  0  0  0  0
  1  5  1  0  0  0  0
  1 10  2  0  0  0  0
  1 12  1  0  0  0  0
  2  5  1  0  0  0  0
  2 11  1  0  0  0  0
  2 15  2  0  0  0  0
  3 10  1  0  0  0  0
  3 11  2  0  0  0  0
  3 14  1  0  0  0  0
  4  6  1  0  0  0  0
  4 12  1  0  0  0  0
  5 13  1  0  0  0  0
  6  8  1  0  0  0  0
  6 13  1  0  0  0  0
  7  9  1  0  0  0  0
  8  9  1  0  0  0  0
  8 16  1  0  0  0  0
  9 17  1  0  0  0  0
  4 18  1  0  0  0  0
  4 19  1  0  0  0  0
  5 20  1  0  0  0  0
  6 21  1  0  0  0  0
  7 22  1  0  0  0  0
  7 23  1  0  0  0  0
  7 24  1  0  0  0  0
  8 25  1  0  0  0  0
  9 26  1  0  0  0  0
 12 27  1  0  0  0  0
 13 28  1  0  0  0  0
 14 29  1  0  0  0  0
 14 30  1  0  0  0  0
 16 31  1  0  0  0  0
 17 32  1  0  0  0  0
M  END
> <FRED Chemgauss4 score>
-5.700203

$$$$
C82916931	P129633296
  -OEChem-05122015083D

 31 30  0     1  0  0  0  0  0999 V2000
   54.3866  157.5621   -3.0175 C   0  0  0  0  0  0  0  0  0  0  0  0
   61.3167  154.8814   -7.8963 C   0  0  0  0  0  0  0  0  0  0  0  0
   58.0001  153.5910   -6.9454 C   0  0  0  0  0  0  0  0  0  0  0  0
   53.2492  155.4854   -3.9230 C   0  0  0  0  0  0  0  0  0  0  0  0
   59.1601  153.9479   -7.8660 C   0  0  0  0  0  0  0  0  0  0  0  0
   57.4616  154.8248   -6.2316 C   0  0  0  0  0  0  0  0  0  0  0  0
   55.7296  156.0500   -4.4953 C   0  0  0  0  0  0  0  0  0  0  0  0
   54.5868  156.1035   -3.4598 C   0  0  1  0  0  0  0  0  0  0  0  0
   52.6275  156.2012   -5.0304 N   0  0  0  0  0  0  0  0  0  0  0  0
   55.0285  155.3772   -2.3034 O   0  0  0  0  0  0  0  0  0  0  0  0
   60.2085  154.5088   -7.0880 O   0  0  0  0  0  0  0  0  0  0  0  0
   56.0887  154.3846   -5.1434 S   0  0  0  0  0  0  0  0  0  0  0  0
   55.3338  158.0046   -2.6879 H   0  0  0  0  0  0  0  0  0  0  0  0
   53.9757  158.1821   -3.8207 H   0  0  0  0  0  0  0  0  0  0  0  0
   53.7077  157.6174   -2.1583 H   0  0  0  0  0  0  0  0  0  0  0  0
   62.1012  155.3076   -7.2663 H   0  0  0  0  0  0  0  0  0  0  0  0
   60.9953  155.6133   -8.6417 H   0  0  0  0  0  0  0  0  0  0  0  0
   61.7017  153.9933   -8.4030 H   0  0  0  0  0  0  0  0  0  0  0  0
   57.2115  153.1086   -7.5374 H   0  0  0  0  0  0  0  0  0  0  0  0
   58.3394  152.8388   -6.2213 H   0  0  0  0  0  0  0  0  0  0  0  0
   53.4203  154.4466   -4.2326 H   0  0  0  0  0  0  0  0  0  0  0  0
   52.5441  155.4164   -3.0867 H   0  0  0  0  0  0  0  0  0  0  0  0
   59.5425  153.0579   -8.3757 H   0  0  0  0  0  0  0  0  0  0  0  0
   58.8515  154.6833   -8.6158 H   0  0  0  0  0  0  0  0  0  0  0  0
   57.1034  155.5629   -6.9562 H   0  0  0  0  0  0  0  0  0  0  0  0
   58.2450  155.2944   -5.6283 H   0  0  0  0  0  0  0  0  0  0  0  0
   55.4721  156.6666   -5.3642 H   0  0  0  0  0  0  0  0  0  0  0  0
   56.6581  156.4487   -4.0732 H   0  0  0  0  0  0  0  0  0  0  0  0
   51.6386  156.1272   -5.1439 H   0  0  0  0  0  0  0  0  0  0  0  0
   53.2188  156.5670   -5.7466 H   0  0  0  0  0  0  0  0  0  0  0  0
   55.8554  155.7949   -2.0266 H   0  0  0  0  0  0  0  0  0  0  0  0
  1  8  1  0  0  0  0
  2 11  1  0  0  0  0
  3  5  1  0  0  0  0
  3  6  1  0  0  0  0
  4  8  1  0  0  0  0
  4  9  1  0  0  0  0
  5 11  1  0  0  0  0
  6 12  1  0  0  0  0
  7  8  1  0  0  0  0
  7 12  1  0  0  0  0
  8 10  1  0  0  0  0
  1 13  1  0  0  0  0
  1 14  1  0  0  0  0
  1 15  1  0  0  0  0
  2 16  1  0  0  0  0
  2 17  1  0  0  0  0
  2 18  1  0  0  0  0
  3 19  1  0  0  0  0
  3 20  1  0  0  0  0
  4 21  1  0  0  0  0
  4 22  1  0  0  0  0
  5 23  1  0  0  0  0
  5 24  1  0  0  0  0
  6 25  1  0  0  0  0
  6 26  1  0  0  0  0
  7 27  1  0  0  0  0
  7 28  1  0  0  0  0
  9 29  1  0  0  0  0
  9 30  1  0  0  0  0
 10 31  1  0  0  0  0
M  END
> <FRED Chemgauss4 score>
-5.694450

$$$$
C85371966	P133630555
  -OEChem-05122015083D

 26 26  0     1  0  0  0  0  0999 V2000
   56.4780  159.4019    0.1756 C   0  0  0  0  0  0  0  0  0  0  0  0
   54.8059  156.4063   -2.8947 C   0  0  0  0  0  0  0  0  0  0  0  0
   56.2845  155.8614   -4.8315 C   0  0  0  0  0  0  0  0  0  0  0  0
   54.7468  156.1369   -6.5525 C   0  0  0  0  0  0  0  0  0  0  0  0
   54.8888  155.7440   -4.2338 C   0  0  2  0  0  0  0  0  0  0  0  0
   54.0210  156.4498   -5.2608 C   0  0  2  0  0  0  0  0  0  0  0  0
   56.4707  158.5683   -1.0358 C   0  0  0  0  0  0  0  0  0  0  0  0
   55.1118  158.5806   -1.7280 C   0  0  0  0  0  0  0  0  0  0  0  0
   56.4859  160.0591    1.1318 N   0  0  0  0  0  0  0  0  0  0  0  0
   52.6453  155.9819   -5.2669 N   0  0  0  0  0  0  0  0  0  0  0  0
   55.1284  157.7498   -2.9106 N   0  0  0  0  0  0  0  0  0  0  0  0
   54.4722  155.7495   -1.9155 O   0  0  0  0  0  0  0  0  0  0  0  0
   56.1400  156.1779   -6.2248 O   0  0  0  0  0  0  0  0  0  0  0  0
   56.9028  156.6309   -4.3552 H   0  0  0  0  0  0  0  0  0  0  0  0
   56.8192  154.9058   -4.7677 H   0  0  0  0  0  0  0  0  0  0  0  0
   54.4996  155.1701   -6.9855 H   0  0  0  0  0  0  0  0  0  0  0  0
   54.5625  156.9072   -7.3009 H   0  0  0  0  0  0  0  0  0  0  0  0
   54.6081  154.6889   -4.0774 H   0  0  0  0  0  0  0  0  0  0  0  0
   54.0062  157.5667   -5.0949 H   0  0  0  0  0  0  0  0  0  0  0  0
   56.7182  157.5372   -0.7580 H   0  0  0  0  0  0  0  0  0  0  0  0
   57.2516  158.9117   -1.7243 H   0  0  0  0  0  0  0  0  0  0  0  0
   54.3486  158.1956   -1.0439 H   0  0  0  0  0  0  0  0  0  0  0  0
   54.8242  159.6008   -2.0055 H   0  0  0  0  0  0  0  0  0  0  0  0
   52.1316  156.0557   -6.1165 H   0  0  0  0  0  0  0  0  0  0  0  0
   52.2111  155.8001   -4.3896 H   0  0  0  0  0  0  0  0  0  0  0  0
   55.3897  158.1739   -3.7957 H   0  0  0  0  0  0  0  0  0  0  0  0
  1  7  1  0  0  0  0
  1  9  3  0  0  0  0
  2  5  1  0  0  0  0
  2 11  1  0  0  0  0
  2 12  2  0  0  0  0
  3  5  1  0  0  0  0
  3 13  1  0  0  0  0
  4  6  1  0  0  0  0
  4 13  1  0  0  0  0
  5  6  1  0  0  0  0
  6 10  1  0  0  0  0
  7  8  1  0  0  0  0
  8 11  1  0  0  0  0
  3 14  1  0  0  0  0
  3 15  1  0  0  0  0
  4 16  1  0  0  0  0
  4 17  1  0  0  0  0
  5 18  1  0  0  0  0
  6 19  1  0  0  0  0
  7 20  1  0  0  0  0
  7 21  1  0  0  0  0
  8 22  1  0  0  0  0
  8 23  1  0  0  0  0
 10 24  1  0  0  0  0
 10 25  1  0  0  0  0
 11 26  1  0  0  0  0
M  END
> <FRED Chemgauss4 score>
-5.693322

$$$$
C70948079	P109520047
  -OEChem-05122015083D

 31 31  0     1  0  0  0  0  0999 V2000
   55.2771  155.4949   -4.2396 C   0  0  0  0  0  0  0  0  0  0  0  0
   55.5568  156.3097   -5.2707 C   0  0  0  0  0  0  0  0  0  0  0  0
   54.6080  156.0572   -3.0443 C   0  0  0  0  0  0  0  0  0  0  0  0
   54.6765  158.1454   -4.2550 C   0  0  0  0  0  0  0  0  0  0  0  0
   57.7353  155.8902   -6.3586 C   0  0  0  0  0  0  0  0  0  0  0  0
   56.4716  162.8288   -4.2863 C   0  0  0  0  0  0  0  0  0  0  0  0
   56.2343  155.7836   -6.5026 C   0  0  0  0  0  0  0  0  0  0  0  0
   55.2844  161.9310   -3.9740 C   0  0  0  0  0  0  0  0  0  0  0  0
   55.5290  160.4958   -4.4462 C   0  0  0  0  0  0  0  0  0  0  0  0
   54.3207  159.5962   -4.2014 C   0  0  1  0  0  0  0  0  0  0  0  0
   55.2631  157.6556   -5.3023 N   0  0  0  0  0  0  0  0  0  0  0  0
   54.3413  157.4078   -3.1399 N   0  0  0  0  0  0  0  0  0  0  0  0
   53.3322  159.7440   -5.2352 N   0  0  0  0  0  0  0  0  0  0  0  0
   54.3334  155.3524   -2.0790 O   0  0  0  0  0  0  0  0  0  0  0  0
   55.5192  154.4389   -4.2403 H   0  0  0  0  0  0  0  0  0  0  0  0
   58.0273  156.9359   -6.2214 H   0  0  0  0  0  0  0  0  0  0  0  0
   58.2463  155.5037   -7.2469 H   0  0  0  0  0  0  0  0  0  0  0  0
   58.0926  155.3183   -5.4958 H   0  0  0  0  0  0  0  0  0  0  0  0
   56.6859  162.8369   -5.3597 H   0  0  0  0  0  0  0  0  0  0  0  0
   57.3689  162.4900   -3.7587 H   0  0  0  0  0  0  0  0  0  0  0  0
   56.2617  163.8567   -3.9742 H   0  0  0  0  0  0  0  0  0  0  0  0
   55.9271  154.7457   -6.6404 H   0  0  0  0  0  0  0  0  0  0  0  0
   55.8823  156.3718   -7.3515 H   0  0  0  0  0  0  0  0  0  0  0  0
   55.1002  161.9480   -2.8938 H   0  0  0  0  0  0  0  0  0  0  0  0
   54.3904  162.3358   -4.4625 H   0  0  0  0  0  0  0  0  0  0  0  0
   56.4149  160.0903   -3.9400 H   0  0  0  0  0  0  0  0  0  0  0  0
   55.7612  160.5054   -5.5191 H   0  0  0  0  0  0  0  0  0  0  0  0
   53.8369  159.8167   -3.2452 H   0  0  0  0  0  0  0  0  0  0  0  0
   53.8828  157.8739   -2.3624 H   0  0  0  0  0  0  0  0  0  0  0  0
   53.1394  160.6620   -5.6031 H   0  0  0  0  0  0  0  0  0  0  0  0
   52.7090  158.9770   -5.4323 H   0  0  0  0  0  0  0  0  0  0  0  0
  1  2  2  0  0  0  0
  1  3  1  0  0  0  0
  2  7  1  0  0  0  0
  2 11  1  0  0  0  0
  3 12  1  0  0  0  0
  3 14  2  0  0  0  0
  4 10  1  0  0  0  0
  4 11  2  0  0  0  0
  4 12  1  0  0  0  0
  5  7  1  0  0  0  0
  6  8  1  0  0  0  0
  8  9  1  0  0  0  0
  9 10  1  0  0  0  0
 10 13  1  0  0  0  0
  1 15  1  0  0  0  0
  5 16  1  0  0  0  0
  5 17  1  0  0  0  0
  5 18  1  0  0  0  0
  6 19  1  0  0  0  0
  6 20  1  0  0  0  0
  6 21  1  0  0  0  0
  7 22  1  0  0  0  0
  7 23  1  0  0  0  0
  8 24  1  0  0  0  0
  8 25  1  0  0  0  0
  9 26  1  0  0  0  0
  9 27  1  0  0  0  0
 10 28  1  0  0  0  0
 12 29  1  0  0  0  0
 13 30  1  0  0  0  0
 13 31  1  0  0  0  0
M  END
> <FRED Chemgauss4 score>
-5.689761

$$$$
C39095921	P59227803
  -OEChem-05122015083D

 19 19  0     1  0  0  0  0  0999 V2000
   53.7793  156.0746   -3.3879 C   0  0  0  0  0  0  0  0  0  0  0  0
   54.9278  155.2423   -3.8762 C   0  0  0  0  0  0  0  0  0  0  0  0
   54.5072  154.9251   -5.3095 C   0  0  2  0  0  0  0  0  0  0  0  0
   55.6867  154.7853   -6.2564 C   0  0  0  0  0  0  0  0  0  0  0  0
   56.5303  156.0455   -6.2809 C   0  0  0  0  0  0  0  0  0  0  0  0
   53.0950  156.5036   -4.5081 N   0  0  0  0  0  0  0  0  0  0  0  0
   53.6516  156.0554   -5.6902 N   0  0  0  0  0  0  0  0  0  0  0  0
   53.5378  156.3371   -2.2204 O   0  0  0  0  0  0  0  0  0  0  0  0
   57.6006  155.8527   -7.1953 O   0  0  0  0  0  0  0  0  0  0  0  0
   55.8638  155.7994   -3.8122 H   0  0  0  0  0  0  0  0  0  0  0  0
   54.9773  154.3380   -3.2638 H   0  0  0  0  0  0  0  0  0  0  0  0
   53.9222  153.9955   -5.3354 H   0  0  0  0  0  0  0  0  0  0  0  0
   55.3187  154.5596   -7.2603 H   0  0  0  0  0  0  0  0  0  0  0  0
   56.2958  153.9311   -5.9506 H   0  0  0  0  0  0  0  0  0  0  0  0
   55.9418  156.9078   -6.6103 H   0  0  0  0  0  0  0  0  0  0  0  0
   56.9505  156.2580   -5.2926 H   0  0  0  0  0  0  0  0  0  0  0  0
   52.2700  157.0869   -4.4643 H   0  0  0  0  0  0  0  0  0  0  0  0
   54.2099  156.8140   -6.0796 H   0  0  0  0  0  0  0  0  0  0  0  0
   58.1233  156.6710   -7.1920 H   0  0  0  0  0  0  0  0  0  0  0  0
  1  2  1  0  0  0  0
  1  6  1  0  0  0  0
  1  8  2  0  0  0  0
  2  3  1  0  0  0  0
  3  4  1  0  0  0  0
  3  7  1  0  0  0  0
  4  5  1  0  0  0  0
  5  9  1  0  0  0  0
  6  7  1  0  0  0  0
  2 10  1  0  0  0  0
  2 11  1  0  0  0  0
  3 12  1  0  0  0  0
  4 13  1  0  0  0  0
  4 14  1  0  0  0  0
  5 15  1  0  0  0  0
  5 16  1  0  0  0  0
  6 17  1  0  0  0  0
  7 18  1  0  0  0  0
  9 19  1  0  0  0  0
M  END
> <FRED Chemgauss4 score>
-5.689410

$$$$
C86400074	P135284224
  -OEChem-05122015083D

 27 28  0     1  0  0  0  0  0999 V2000
   55.7894  158.2834   -2.6833 C   0  0  0  0  0  0  0  0  0  0  0  0
   56.5598  155.5913   -5.7215 C   0  0  0  0  0  0  0  0  0  0  0  0
   55.7230  154.5114   -6.4133 C   0  0  0  0  0  0  0  0  0  0  0  0
   54.5895  156.6743   -6.5044 C   0  0  0  0  0  0  0  0  0  0  0  0
   55.5507  156.6617   -5.3186 C   0  0  2  0  0  0  0  0  0  0  0  0
   54.4188  155.1945   -6.8388 C   0  0  2  0  0  0  0  0  0  0  0  0
   56.7917  158.0082   -3.7667 C   0  0  0  0  0  0  0  0  0  0  0  0
   55.8606  159.3539   -1.8694 N   0  5  0  0  0  0  0  0  0  0  0  0
   54.7354  157.4830   -2.4350 N   0  0  0  0  0  0  0  0  0  0  0  0
   54.7816  159.2151   -1.0587 N   0  0  0  0  0  0  0  0  0  0  0  0
   54.1057  158.0911   -1.3984 N   0  0  0  0  0  0  0  0  0  0  0  0
   56.1700  157.9546   -5.0845 N   0  0  0  0  0  0  0  0  0  0  0  0
   53.2934  154.6357   -6.0401 N   0  3  0  0  0  0  0  0  0  0  0  0
   57.1136  155.1958   -4.8639 H   0  0  0  0  0  0  0  0  0  0  0  0
   57.2938  155.9910   -6.4333 H   0  0  0  0  0  0  0  0  0  0  0  0
   56.2635  154.1257   -7.2849 H   0  0  0  0  0  0  0  0  0  0  0  0
   55.5515  153.6646   -5.7387 H   0  0  0  0  0  0  0  0  0  0  0  0
   53.6475  157.1835   -6.2743 H   0  0  0  0  0  0  0  0  0  0  0  0
   55.0450  157.1870   -7.3620 H   0  0  0  0  0  0  0  0  0  0  0  0
   55.0216  156.3477   -4.4103 H   0  0  0  0  0  0  0  0  0  0  0  0
   54.1660  155.0215   -7.8887 H   0  0  0  0  0  0  0  0  0  0  0  0
   57.5609  158.7879   -3.7882 H   0  0  0  0  0  0  0  0  0  0  0  0
   57.3009  157.0536   -3.5977 H   0  0  0  0  0  0  0  0  0  0  0  0
   55.4615  158.6870   -5.1485 H   0  0  0  0  0  0  0  0  0  0  0  0
   52.6128  154.1727   -6.6488 H   0  0  0  0  0  0  0  0  0  0  0  0
   52.8108  155.3788   -5.5270 H   0  0  0  0  0  0  0  0  0  0  0  0
   53.6367  153.9492   -5.3626 H   0  0  0  0  0  0  0  0  0  0  0  0
  1  7  1  0  0  0  0
  1  8  1  0  0  0  0
  1  9  2  0  0  0  0
  2  3  1  0  0  0  0
  2  5  1  0  0  0  0
  3  6  1  0  0  0  0
  4  5  1  0  0  0  0
  4  6  1  0  0  0  0
  5 12  1  0  0  0  0
  6 13  1  0  0  0  0
  7 12  1  0  0  0  0
  8 10  1  0  0  0  0
  9 11  1  0  0  0  0
 10 11  2  0  0  0  0
  2 14  1  0  0  0  0
  2 15  1  0  0  0  0
  3 16  1  0  0  0  0
  3 17  1  0  0  0  0
  4 18  1  0  0  0  0
  4 19  1  0  0  0  0
  5 20  1  0  0  0  0
  6 21  1  0  0  0  0
  7 22  1  0  0  0  0
  7 23  1  0  0  0  0
 12 24  1  0  0  0  0
 13 25  1  0  0  0  0
 13 26  1  0  0  0  0
 13 27  1  0  0  0  0
M  CHG  2   8  -1  13   1
M  END
> <FRED Chemgauss4 score>
-5.687409

$$$$
C37321360	P55502532
  -OEChem-05122015083D

 45 46  0     1  0  0  0  0  0999 V2000
   59.4366  160.7509   -1.0865 C   0  0  0  0  0  0  0  0  0  0  0  0
   58.1584  160.6626   -1.6264 C   0  0  0  0  0  0  0  0  0  0  0  0
   57.9077  161.1781   -2.8932 C   0  0  0  0  0  0  0  0  0  0  0  0
   60.4216  161.3593   -1.8477 C   0  0  0  0  0  0  0  0  0  0  0  0
   58.9611  161.7675   -3.5735 C   0  0  0  0  0  0  0  0  0  0  0  0
   56.9224  156.5232   -5.2125 C   0  0  0  0  0  0  0  0  0  0  0  0
   56.9956  158.0150   -5.5293 C   0  0  0  0  0  0  0  0  0  0  0  0
   55.5208  156.1096   -4.7773 C   0  0  0  0  0  0  0  0  0  0  0  0
   55.0898  158.4469   -3.9276 C   0  0  0  0  0  0  0  0  0  0  0  0
   56.4957  158.8672   -4.3599 C   0  0  2  0  0  0  0  0  0  0  0  0
   55.0215  156.9551   -3.6069 C   0  0  1  0  0  0  0  0  0  0  0  0
   57.0763  160.0146   -0.8276 C   0  0  0  0  0  0  0  0  0  0  0  0
   61.8055  161.4707   -1.3008 C   0  0  0  0  0  0  0  0  0  0  0  0
   58.7537  162.3378   -4.9386 C   0  0  0  0  0  0  0  0  0  0  0  0
   55.9390  162.4690   -3.8189 C   0  0  0  0  0  0  0  0  0  0  0  0
   56.5271  161.0942   -3.5077 C   0  0  1  0  0  0  0  0  0  0  0  0
   60.2160  161.8717   -3.0817 N   0  0  0  0  0  0  0  0  0  0  0  0
   56.5270  160.2678   -4.7050 N   0  0  0  0  0  0  0  0  0  0  0  0
   53.6710  156.6147   -3.3126 O   0  0  0  0  0  0  0  0  0  0  0  0
   59.6553  160.3552   -0.0997 H   0  0  0  0  0  0  0  0  0  0  0  0
   57.2217  155.9438   -6.0933 H   0  0  0  0  0  0  0  0  0  0  0  0
   57.6371  156.2843   -4.4152 H   0  0  0  0  0  0  0  0  0  0  0  0
   58.0311  158.2807   -5.7755 H   0  0  0  0  0  0  0  0  0  0  0  0
   56.3957  158.2177   -6.4266 H   0  0  0  0  0  0  0  0  0  0  0  0
   54.8258  156.1998   -5.6227 H   0  0  0  0  0  0  0  0  0  0  0  0
   55.5112  155.0489   -4.4988 H   0  0  0  0  0  0  0  0  0  0  0  0
   54.7696  159.0226   -3.0495 H   0  0  0  0  0  0  0  0  0  0  0  0
   54.3585  158.6814   -4.7142 H   0  0  0  0  0  0  0  0  0  0  0  0
   57.1798  158.7069   -3.5031 H   0  0  0  0  0  0  0  0  0  0  0  0
   55.6218  156.7425   -2.7144 H   0  0  0  0  0  0  0  0  0  0  0  0
   56.5623  160.7594   -0.2088 H   0  0  0  0  0  0  0  0  0  0  0  0
   56.3372  159.5316   -1.4789 H   0  0  0  0  0  0  0  0  0  0  0  0
   57.4809  159.2341   -0.1710 H   0  0  0  0  0  0  0  0  0  0  0  0
   62.3973  160.5904   -1.5790 H   0  0  0  0  0  0  0  0  0  0  0  0
   62.3127  162.3663   -1.6816 H   0  0  0  0  0  0  0  0  0  0  0  0
   61.7951  161.5521   -0.2063 H   0  0  0  0  0  0  0  0  0  0  0  0
   58.4611  163.3917   -4.8692 H   0  0  0  0  0  0  0  0  0  0  0  0
   59.6681  162.2673   -5.5403 H   0  0  0  0  0  0  0  0  0  0  0  0
   57.9715  161.7924   -5.4809 H   0  0  0  0  0  0  0  0  0  0  0  0
   56.5749  163.0206   -4.5199 H   0  0  0  0  0  0  0  0  0  0  0  0
   54.9451  162.3684   -4.2692 H   0  0  0  0  0  0  0  0  0  0  0  0
   55.8229  163.0791   -2.9161 H   0  0  0  0  0  0  0  0  0  0  0  0
   55.8508  160.5920   -2.8051 H   0  0  0  0  0  0  0  0  0  0  0  0
   55.7083  160.4876   -5.2686 H   0  0  0  0  0  0  0  0  0  0  0  0
   53.6656  155.6719   -3.0834 H   0  0  0  0  0  0  0  0  0  0  0  0
  1  2  1  0  0  0  0
  1  4  2  0  0  0  0
  2  3  2  0  0  0  0
  2 12  1  0  0  0  0
  3  5  1  0  0  0  0
  3 16  1  0  0  0  0
  4 13  1  0  0  0  0
  4 17  1  0  0  0  0
  5 14  1  0  0  0  0
  5 17  2  0  0  0  0
  6  7  1  0  0  0  0
  6  8  1  0  0  0  0
  7 10  1  0  0  0  0
  8 11  1  0  0  0  0
  9 10  1  0  0  0  0
  9 11  1  0  0  0  0
 10 18  1  0  0  0  0
 11 19  1  0  0  0  0
 15 16  1  0  0  0  0
 16 18  1  0  0  0  0
  1 20  1  0  0  0  0
  6 21  1  0  0  0  0
  6 22  1  0  0  0  0
  7 23  1  0  0  0  0
  7 24  1  0  0  0  0
  8 25  1  0  0  0  0
  8 26  1  0  0  0  0
  9 27  1  0  0  0  0
  9 28  1  0  0  0  0
 10 29  1  0  0  0  0
 11 30  1  0  0  0  0
 12 31  1  0  0  0  0
 12 32  1  0  0  0  0
 12 33  1  0  0  0  0
 13 34  1  0  0  0  0
 13 35  1  0  0  0  0
 13 36  1  0  0  0  0
 14 37  1  0  0  0  0
 14 38  1  0  0  0  0
 14 39  1  0  0  0  0
 15 40  1  0  0  0  0
 15 41  1  0  0  0  0
 15 42  1  0  0  0  0
 16 43  1  0  0  0  0
 18 44  1  0  0  0  0
 19 45  1  0  0  0  0
M  END
> <FRED Chemgauss4 score>
-5.687076

$$$$
C85618496	P134076390
  -OEChem-05122015083D

 24 25  0     1  0  0  0  0  0999 V2000
   54.3581  157.5675   -4.6027 C   0  0  0  0  0  0  0  0  0  0  0  0
   55.2436  157.7864   -2.7253 C   0  0  0  0  0  0  0  0  0  0  0  0
   58.7563  160.5746   -1.2894 C   0  0  0  0  0  0  0  0  0  0  0  0
   57.1171  159.6014    0.1598 C   0  0  0  0  0  0  0  0  0  0  0  0
   57.8292  160.3427   -2.4753 C   0  0  0  0  0  0  0  0  0  0  0  0
   56.1788  159.3891   -1.0322 C   0  0  2  0  0  0  0  0  0  0  0  0
   56.1965  157.9600   -1.5724 C   0  0  0  0  0  0  0  0  0  0  0  0
   55.5707  157.7252   -3.9952 N   0  0  0  0  0  0  0  0  0  0  0  0
   53.8950  157.6694   -2.5939 N   0  0  0  0  0  0  0  0  0  0  0  0
   53.3012  157.5273   -3.7886 N   0  0  0  0  0  0  0  0  0  0  0  0
   58.5208  159.5674   -0.2545 N   0  0  0  0  0  0  0  0  0  0  0  0
   56.4613  160.3423   -2.0648 O   0  0  0  0  0  0  0  0  0  0  0  0
   54.2585  157.4804   -5.6767 H   0  0  0  0  0  0  0  0  0  0  0  0
   59.8033  160.5252   -1.6144 H   0  0  0  0  0  0  0  0  0  0  0  0
   58.5843  161.5728   -0.8724 H   0  0  0  0  0  0  0  0  0  0  0  0
   56.9072  160.5717    0.6342 H   0  0  0  0  0  0  0  0  0  0  0  0
   56.9490  158.8267    0.9257 H   0  0  0  0  0  0  0  0  0  0  0  0
   57.9748  161.1020   -3.2576 H   0  0  0  0  0  0  0  0  0  0  0  0
   58.0405  159.3658   -2.9284 H   0  0  0  0  0  0  0  0  0  0  0  0
   55.1134  159.5966   -0.6848 H   0  0  0  0  0  0  0  0  0  0  0  0
   55.9384  157.2590   -0.7700 H   0  0  0  0  0  0  0  0  0  0  0  0
   57.2128  157.6979   -1.8894 H   0  0  0  0  0  0  0  0  0  0  0  0
   52.2962  157.4250   -3.8999 H   0  0  0  0  0  0  0  0  0  0  0  0
   58.7446  158.6445   -0.6213 H   0  0  0  0  0  0  0  0  0  0  0  0
  1  8  2  0  0  0  0
  1 10  1  0  0  0  0
  2  7  1  0  0  0  0
  2  8  1  0  0  0  0
  2  9  2  0  0  0  0
  3  5  1  0  0  0  0
  3 11  1  0  0  0  0
  4  6  1  0  0  0  0
  4 11  1  0  0  0  0
  5 12  1  0  0  0  0
  6  7  1  0  0  0  0
  6 12  1  0  0  0  0
  9 10  1  0  0  0  0
  1 13  1  0  0  0  0
  3 14  1  0  0  0  0
  3 15  1  0  0  0  0
  4 16  1  0  0  0  0
  4 17  1  0  0  0  0
  5 18  1  0  0  0  0
  5 19  1  0  0  0  0
  6 20  1  0  0  0  0
  7 21  1  0  0  0  0
  7 22  1  0  0  0  0
 10 23  1  0  0  0  0
 11 24  1  0  0  0  0
M  END
> <FRED Chemgauss4 score>
-5.686791

$$$$
C87588443	P137003148
  -OEChem-05122015083D

 24 24  0     0  0  0  0  0  0999 V2000
   55.4982  156.0950   -4.2423 C   0  0  0  0  0  0  0  0  0  0  0  0
   53.3751  155.7678   -3.9351 C   0  0  0  0  0  0  0  0  0  0  0  0
   56.8898  155.9438   -4.7829 C   0  0  0  0  0  0  0  0  0  0  0  0
   58.4832  154.5669   -6.9532 C   0  0  0  0  0  0  0  0  0  0  0  0
   58.1663  156.0378   -6.7538 C   0  0  0  0  0  0  0  0  0  0  0  0
   55.0940  156.9535   -3.3335 N   0  0  0  0  0  0  0  0  0  0  0  0
   53.7432  156.7453   -3.1381 N   0  0  0  0  0  0  0  0  0  0  0  0
   54.4485  155.3285   -4.6490 N   0  0  0  0  0  0  0  0  0  0  0  0
   52.1561  155.2065   -4.1033 N   0  0  0  0  0  0  0  0  0  0  0  0
   59.8181  154.4268   -7.5788 N   0  0  0  0  0  0  0  0  0  0  0  0
   54.4788  154.2937   -5.6123 N   0  0  0  0  0  0  0  0  0  0  0  0
   56.8694  156.1686   -6.1858 O   0  0  0  0  0  0  0  0  0  0  0  0
   57.5717  156.6626   -4.3159 H   0  0  0  0  0  0  0  0  0  0  0  0
   57.2751  154.9376   -4.5858 H   0  0  0  0  0  0  0  0  0  0  0  0
   58.4935  154.0302   -5.9992 H   0  0  0  0  0  0  0  0  0  0  0  0
   57.7456  154.1049   -7.6163 H   0  0  0  0  0  0  0  0  0  0  0  0
   58.1666  156.5553   -7.7181 H   0  0  0  0  0  0  0  0  0  0  0  0
   58.8917  156.5194   -6.0899 H   0  0  0  0  0  0  0  0  0  0  0  0
   51.3422  155.4905   -3.5406 H   0  0  0  0  0  0  0  0  0  0  0  0
   52.0063  154.4061   -4.7331 H   0  0  0  0  0  0  0  0  0  0  0  0
   59.9877  153.6017   -8.0941 H   0  0  0  0  0  0  0  0  0  0  0  0
   60.5204  155.0547   -7.2824 H   0  0  0  0  0  0  0  0  0  0  0  0
   55.1780  154.4455   -6.3465 H   0  0  0  0  0  0  0  0  0  0  0  0
   53.5912  154.1924   -6.1155 H   0  0  0  0  0  0  0  0  0  0  0  0
  1  3  1  0  0  0  0
  1  6  2  0  0  0  0
  1  8  1  0  0  0  0
  2  7  2  0  0  0  0
  2  8  1  0  0  0  0
  2  9  1  0  0  0  0
  3 12  1  0  0  0  0
  4  5  1  0  0  0  0
  4 10  1  0  0  0  0
  5 12  1  0  0  0  0
  6  7  1  0  0  0  0
  8 11  1  0  0  0  0
  3 13  1  0  0  0  0
  3 14  1  0  0  0  0
  4 15  1  0  0  0  0
  4 16  1  0  0  0  0
  5 17  1  0  0  0  0
  5 18  1  0  0  0  0
  9 19  1  0  0  0  0
  9 20  1  0  0  0  0
 10 21  1  0  0  0  0
 10 22  1  0  0  0  0
 11 23  1  0  0  0  0
 11 24  1  0  0  0  0
M  END
> <FRED Chemgauss4 score>
-5.684734

$$$$
C54526015	P82065671
  -OEChem-05122015083D

 32 32  0     1  0  0  0  0  0999 V2000
   55.4344  155.6053   -3.7167 C   0  0  0  0  0  0  0  0  0  0  0  0
   54.7508  157.5517   -3.0435 C   0  0  0  0  0  0  0  0  0  0  0  0
   55.6648  161.3517   -2.7357 C   0  0  0  0  0  0  0  0  0  0  0  0
   56.6311  159.3974   -1.5226 C   0  0  0  0  0  0  0  0  0  0  0  0
   59.8531  158.3725   -5.5236 C   0  0  0  0  0  0  0  0  0  0  0  0
   56.2865  157.5540   -5.0389 C   0  0  0  0  0  0  0  0  0  0  0  0
   57.7743  157.6248   -4.7223 C   0  0  0  0  0  0  0  0  0  0  0  0
   54.5678  159.0572   -2.9728 C   0  0  1  0  0  0  0  0  0  0  0  0
   55.8962  159.8364   -2.7970 C   0  0  0  0  0  0  0  0  0  0  0  0
   54.6510  155.4115   -2.6798 N   0  0  0  0  0  0  0  0  0  0  0  0
   54.2161  156.6499   -2.2514 N   0  0  0  0  0  0  0  0  0  0  0  0
   55.5254  156.9382   -3.9807 N   0  0  0  0  0  0  0  0  0  0  0  0
   53.8575  159.4691   -4.1645 N   0  0  0  0  0  0  0  0  0  0  0  0
   58.4597  158.2752   -5.7846 O   0  0  0  0  0  0  0  0  0  0  0  0
   55.9419  154.8442   -4.2921 H   0  0  0  0  0  0  0  0  0  0  0  0
   55.0036  161.6179   -1.9039 H   0  0  0  0  0  0  0  0  0  0  0  0
   56.6124  161.8835   -2.5964 H   0  0  0  0  0  0  0  0  0  0  0  0
   55.2178  161.7278   -3.6610 H   0  0  0  0  0  0  0  0  0  0  0  0
   56.0202  159.5763   -0.6312 H   0  0  0  0  0  0  0  0  0  0  0  0
   57.5693  159.9504   -1.4054 H   0  0  0  0  0  0  0  0  0  0  0  0
   56.8839  158.3329   -1.5546 H   0  0  0  0  0  0  0  0  0  0  0  0
   60.3466  158.8761   -6.3584 H   0  0  0  0  0  0  0  0  0  0  0  0
   60.2705  157.3713   -5.3901 H   0  0  0  0  0  0  0  0  0  0  0  0
   60.0041  158.9528   -4.6103 H   0  0  0  0  0  0  0  0  0  0  0  0
   56.1039  156.9796   -5.9546 H   0  0  0  0  0  0  0  0  0  0  0  0
   55.8773  158.5601   -5.1860 H   0  0  0  0  0  0  0  0  0  0  0  0
   57.9317  158.2124   -3.8124 H   0  0  0  0  0  0  0  0  0  0  0  0
   58.2086  156.6299   -4.5804 H   0  0  0  0  0  0  0  0  0  0  0  0
   53.9015  159.3101   -2.1377 H   0  0  0  0  0  0  0  0  0  0  0  0
   56.5624  159.6294   -3.6448 H   0  0  0  0  0  0  0  0  0  0  0  0
   53.9103  160.4295   -4.4496 H   0  0  0  0  0  0  0  0  0  0  0  0
   53.1747  158.8481   -4.5576 H   0  0  0  0  0  0  0  0  0  0  0  0
  1 10  2  0  0  0  0
  1 12  1  0  0  0  0
  2  8  1  0  0  0  0
  2 11  2  0  0  0  0
  2 12  1  0  0  0  0
  3  9  1  0  0  0  0
  4  9  1  0  0  0  0
  5 14  1  0  0  0  0
  6  7  1  0  0  0  0
  6 12  1  0  0  0  0
  7 14  1  0  0  0  0
  8  9  1  0  0  0  0
  8 13  1  0  0  0  0
 10 11  1  0  0  0  0
  1 15  1  0  0  0  0
  3 16  1  0  0  0  0
  3 17  1  0  0  0  0
  3 18  1  0  0  0  0
  4 19  1  0  0  0  0
  4 20  1  0  0  0  0
  4 21  1  0  0  0  0
  5 22  1  0  0  0  0
  5 23  1  0  0  0  0
  5 24  1  0  0  0  0
  6 25  1  0  0  0  0
  6 26  1  0  0  0  0
  7 27  1  0  0  0  0
  7 28  1  0  0  0  0
  8 29  1  0  0  0  0
  9 30  1  0  0  0  0
 13 31  1  0  0  0  0
 13 32  1  0  0  0  0
M  END
> <FRED Chemgauss4 score>
-5.682192

$$$$
C86088781	P134832591
  -OEChem-05122015083D

 24 25  0     1  0  0  0  0  0999 V2000
   54.8761  157.3654   -4.1756 C   0  0  0  0  0  0  0  0  0  0  0  0
   55.5888  158.1966   -2.3984 C   0  0  0  0  0  0  0  0  0  0  0  0
   54.2909  155.3919   -5.6070 C   0  0  0  0  0  0  0  0  0  0  0  0
   55.2229  154.5070   -5.9763 C   0  0  0  0  0  0  0  0  0  0  0  0
   56.1639  156.6490   -6.3180 C   0  0  0  0  0  0  0  0  0  0  0  0
   54.8173  156.7977   -5.5779 C   0  0  2  0  0  0  0  0  0  0  0  0
   56.5433  155.1595   -6.2324 C   0  0  2  0  0  0  0  0  0  0  0  0
   56.4043  158.7675   -1.3300 C   0  0  0  0  0  0  0  0  0  0  0  0
   56.0207  157.8052   -3.5747 N   0  0  0  0  0  0  0  0  0  0  0  0
   54.2465  157.9947   -2.3134 N   0  0  0  0  0  0  0  0  0  0  0  0
   53.7631  157.4602   -3.4451 N   0  0  0  0  0  0  0  0  0  0  0  0
   57.1907  154.7085   -7.4553 N   0  0  0  0  0  0  0  0  0  0  0  0
   53.2748  155.1270   -5.3494 H   0  0  0  0  0  0  0  0  0  0  0  0
   55.0518  153.4411   -6.0342 H   0  0  0  0  0  0  0  0  0  0  0  0
   56.0159  156.9454   -7.3670 H   0  0  0  0  0  0  0  0  0  0  0  0
   56.9596  157.2909   -5.9211 H   0  0  0  0  0  0  0  0  0  0  0  0
   54.1316  157.4467   -6.1693 H   0  0  0  0  0  0  0  0  0  0  0  0
   57.2072  154.9835   -5.3802 H   0  0  0  0  0  0  0  0  0  0  0  0
   56.4671  159.8714   -1.4031 H   0  0  0  0  0  0  0  0  0  0  0  0
   56.0123  158.5339   -0.3188 H   0  0  0  0  0  0  0  0  0  0  0  0
   57.4459  158.3851   -1.3338 H   0  0  0  0  0  0  0  0  0  0  0  0
   52.7809  157.2323   -3.5730 H   0  0  0  0  0  0  0  0  0  0  0  0
   57.1353  153.7390   -7.6920 H   0  0  0  0  0  0  0  0  0  0  0  0
   57.8332  155.3264   -7.9078 H   0  0  0  0  0  0  0  0  0  0  0  0
  1  6  1  0  0  0  0
  1  9  2  0  0  0  0
  1 11  1  0  0  0  0
  2  8  1  0  0  0  0
  2  9  1  0  0  0  0
  2 10  2  0  0  0  0
  3  4  2  0  0  0  0
  3  6  1  0  0  0  0
  4  7  1  0  0  0  0
  5  6  1  0  0  0  0
  5  7  1  0  0  0  0
  7 12  1  0  0  0  0
 10 11  1  0  0  0  0
  3 13  1  0  0  0  0
  4 14  1  0  0  0  0
  5 15  1  0  0  0  0
  5 16  1  0  0  0  0
  6 17  1  0  0  0  0
  7 18  1  0  0  0  0
  8 19  1  0  0  0  0
  8 20  1  0  0  0  0
  8 21  1  0  0  0  0
 11 22  1  0  0  0  0
 12 23  1  0  0  0  0
 12 24  1  0  0  0  0
M  END
> <FRED Chemgauss4 score>
-5.682120

$$$$
C92782003	P145256586
  -OEChem-05122015083D

 35 36  0     1  0  0  0  0  0999 V2000
   53.2298  154.9968   -4.8152 C   0  0  0  0  0  0  0  0  0  0  0  0
   55.0051  156.1264   -4.5429 C   0  0  0  0  0  0  0  0  0  0  0  0
   53.9859  157.0435   -4.6188 C   0  0  0  0  0  0  0  0  0  0  0  0
   55.7526  158.8859   -2.6366 C   0  0  0  0  0  0  0  0  0  0  0  0
   59.0774  161.1287   -1.3521 C   0  0  0  0  0  0  0  0  0  0  0  0
   56.4186  156.5018   -4.3252 C   0  0  0  0  0  0  0  0  0  0  0  0
   54.1405  158.5124   -4.5452 C   0  0  0  0  0  0  0  0  0  0  0  0
   55.5949  158.8470   -4.1282 C   0  0  2  0  0  0  0  0  0  0  0  0
   59.6351  162.2097   -3.5230 C   0  0  0  0  0  0  0  0  0  0  0  0
   57.8776  160.7290   -0.5121 C   0  0  0  0  0  0  0  0  0  0  0  0
   57.3944  159.3184   -0.8201 C   0  0  0  0  0  0  0  0  0  0  0  0
   54.5310  154.8489   -4.6602 N   0  0  0  0  0  0  0  0  0  0  0  0
   52.8497  156.3156   -4.7971 N   0  0  0  0  0  0  0  0  0  0  0  0
   56.6208  157.9275   -4.6719 N   0  0  0  0  0  0  0  0  0  0  0  0
   57.0247  159.2214   -2.2139 N   0  0  0  0  0  0  0  0  0  0  0  0
   58.6904  161.7314   -2.5401 N   0  0  0  0  0  0  0  0  0  0  0  0
   54.7911  158.6319   -1.9206 O   0  0  0  0  0  0  0  0  0  0  0  0
   60.2381  160.9341   -1.0016 O   0  0  0  0  0  0  0  0  0  0  0  0
   52.5119  154.1996   -4.9446 H   0  0  0  0  0  0  0  0  0  0  0  0
   56.7040  156.3438   -3.2786 H   0  0  0  0  0  0  0  0  0  0  0  0
   57.0748  155.8774   -4.9442 H   0  0  0  0  0  0  0  0  0  0  0  0
   53.9133  158.9793   -5.5157 H   0  0  0  0  0  0  0  0  0  0  0  0
   53.4187  158.9180   -3.8184 H   0  0  0  0  0  0  0  0  0  0  0  0
   55.8460  159.8866   -4.4883 H   0  0  0  0  0  0  0  0  0  0  0  0
   59.8955  163.2513   -3.3181 H   0  0  0  0  0  0  0  0  0  0  0  0
   59.2027  162.1456   -4.5253 H   0  0  0  0  0  0  0  0  0  0  0  0
   60.5469  161.6070   -3.4955 H   0  0  0  0  0  0  0  0  0  0  0  0
   58.1551  160.8086    0.5463 H   0  0  0  0  0  0  0  0  0  0  0  0
   57.0717  161.4508   -0.6952 H   0  0  0  0  0  0  0  0  0  0  0  0
   56.5298  159.0634   -0.1977 H   0  0  0  0  0  0  0  0  0  0  0  0
   58.1796  158.5865   -0.6021 H   0  0  0  0  0  0  0  0  0  0  0  0
   51.9075  156.6714   -4.8953 H   0  0  0  0  0  0  0  0  0  0  0  0
   57.5445  158.2191   -4.3179 H   0  0  0  0  0  0  0  0  0  0  0  0
   57.7338  159.4088   -2.9164 H   0  0  0  0  0  0  0  0  0  0  0  0
   57.6981  161.8414   -2.7273 H   0  0  0  0  0  0  0  0  0  0  0  0
  1 12  2  0  0  0  0
  1 13  1  0  0  0  0
  2  3  2  0  0  0  0
  2  6  1  0  0  0  0
  2 12  1  0  0  0  0
  3  7  1  0  0  0  0
  3 13  1  0  0  0  0
  4  8  1  0  0  0  0
  4 15  1  0  0  0  0
  4 17  2  0  0  0  0
  5 10  1  0  0  0  0
  5 16  1  0  0  0  0
  5 18  2  0  0  0  0
  6 14  1  0  0  0  0
  7  8  1  0  0  0  0
  8 14  1  0  0  0  0
  9 16  1  0  0  0  0
 10 11  1  0  0  0  0
 11 15  1  0  0  0  0
  1 19  1  0  0  0  0
  6 20  1  0  0  0  0
  6 21  1  0  0  0  0
  7 22  1  0  0  0  0
  7 23  1  0  0  0  0
  8 24  1  0  0  0  0
  9 25  1  0  0  0  0
  9 26  1  0  0  0  0
  9 27  1  0  0  0  0
 10 28  1  0  0  0  0
 10 29  1  0  0  0  0
 11 30  1  0  0  0  0
 11 31  1  0  0  0  0
 13 32  1  0  0  0  0
 14 33  1  0  0  0  0
 15 34  1  0  0  0  0
 16 35  1  0  0  0  0
M  END
> <FRED Chemgauss4 score>
-5.681693

$$$$
C01081240	P08266848
  -OEChem-05122015083D

 27 27  0     1  0  0  0  0  0999 V2000
   55.4052  157.5999   -4.2199 C   0  0  2  0  0  0  0  0  0  0  0  0
   55.6028  156.5933   -5.3556 C   0  0  1  0  0  0  0  0  0  0  0  0
   53.9800  157.5545   -3.6596 C   0  0  2  0  0  0  0  0  0  0  0  0
   55.1589  155.2017   -4.8823 C   0  0  2  0  0  0  0  0  0  0  0  0
   53.5852  156.1192   -3.3055 C   0  0  1  0  0  0  0  0  0  0  0  0
   56.0029  159.7816   -3.5834 C   0  0  0  0  0  0  0  0  0  0  0  0
   55.2268  154.1511   -5.9849 C   0  0  0  0  0  0  0  0  0  0  0  0
   53.8051  155.2338   -4.4101 O   0  0  0  0  0  0  0  0  0  0  0  0
   54.8394  157.0021   -6.4897 O   0  0  0  0  0  0  0  0  0  0  0  0
   53.0469  158.0456   -4.6205 O   0  0  0  0  0  0  0  0  0  0  0  0
   54.2867  155.7060   -2.1371 O   0  0  0  0  0  0  0  0  0  0  0  0
   54.3666  154.5458   -7.0385 O   0  0  0  0  0  0  0  0  0  0  0  0
   55.7287  158.9098   -4.6710 O   0  0  0  0  0  0  0  0  0  0  0  0
   56.1097  157.3545   -3.4165 H   0  0  0  0  0  0  0  0  0  0  0  0
   56.6544  156.5879   -5.6637 H   0  0  0  0  0  0  0  0  0  0  0  0
   53.9123  158.2048   -2.7805 H   0  0  0  0  0  0  0  0  0  0  0  0
   55.8060  154.8707   -4.0598 H   0  0  0  0  0  0  0  0  0  0  0  0
   52.5123  156.0824   -3.0836 H   0  0  0  0  0  0  0  0  0  0  0  0
   56.2468  160.7761   -3.9651 H   0  0  0  0  0  0  0  0  0  0  0  0
   56.8399  159.3876   -3.0014 H   0  0  0  0  0  0  0  0  0  0  0  0
   55.1172  159.8454   -2.9469 H   0  0  0  0  0  0  0  0  0  0  0  0
   54.9027  153.1840   -5.5992 H   0  0  0  0  0  0  0  0  0  0  0  0
   56.2463  154.0723   -6.3633 H   0  0  0  0  0  0  0  0  0  0  0  0
   55.1691  157.8783   -6.7411 H   0  0  0  0  0  0  0  0  0  0  0  0
   52.1720  157.9904   -4.2069 H   0  0  0  0  0  0  0  0  0  0  0  0
   54.0316  156.3186   -1.4296 H   0  0  0  0  0  0  0  0  0  0  0  0
   54.4271  153.8621   -7.7273 H   0  0  0  0  0  0  0  0  0  0  0  0
  1  2  1  0  0  0  0
  1  3  1  0  0  0  0
  1 13  1  0  0  0  0
  2  4  1  0  0  0  0
  2  9  1  0  0  0  0
  3  5  1  0  0  0  0
  3 10  1  0  0  0  0
  4  7  1  0  0  0  0
  4  8  1  0  0  0  0
  5  8  1  0  0  0  0
  5 11  1  0  0  0  0
  6 13  1  0  0  0  0
  7 12  1  0  0  0  0
  1 14  1  0  0  0  0
  2 15  1  0  0  0  0
  3 16  1  0  0  0  0
  4 17  1  0  0  0  0
  5 18  1  0  0  0  0
  6 19  1  0  0  0  0
  6 20  1  0  0  0  0
  6 21  1  0  0  0  0
  7 22  1  0  0  0  0
  7 23  1  0  0  0  0
  9 24  1  0  0  0  0
 10 25  1  0  0  0  0
 11 26  1  0  0  0  0
 12 27  1  0  0  0  0
M  END
> <FRED Chemgauss4 score>
-5.677602

$$$$
C94090967	P147456094
  -OEChem-05122015083D

 38 40  0     1  0  0  0  0  0999 V2000
   56.2679  159.6754   -3.6965 C   0  0  0  0  0  0  0  0  0  0  0  0
   55.1229  158.8753   -3.6795 C   0  0  0  0  0  0  0  0  0  0  0  0
   55.6708  158.0598   -1.4555 C   0  0  0  0  0  0  0  0  0  0  0  0
   61.3934  162.3929   -7.1820 C   0  0  0  0  0  0  0  0  0  0  0  0
   57.1126  159.6457   -2.5974 C   0  0  0  0  0  0  0  0  0  0  0  0
   56.8106  158.8465   -1.4863 C   0  0  0  0  0  0  0  0  0  0  0  0
   54.8270  158.0725   -2.5674 C   0  0  0  0  0  0  0  0  0  0  0  0
   61.0255  162.7958   -5.0578 C   0  0  0  0  0  0  0  0  0  0  0  0
   59.9235  162.0069   -5.3132 C   0  0  0  0  0  0  0  0  0  0  0  0
   57.8272  159.0253   -0.4029 C   0  0  0  0  0  0  0  0  0  0  0  0
   58.9918  159.6437   -1.1885 C   0  0  0  0  0  0  0  0  0  0  0  0
   58.3657  160.4354   -2.3522 C   0  0  1  0  0  0  0  0  0  0  0  0
   61.3709  163.4131   -3.7609 C   0  0  0  0  0  0  0  0  0  0  0  0
   59.2980  159.2254   -4.1816 C   0  0  0  0  0  0  0  0  0  0  0  0
   58.8152  161.5689   -4.3999 C   0  0  0  0  0  0  0  0  0  0  0  0
   61.8698  163.0180   -6.1282 N   0  0  0  0  0  0  0  0  0  0  0  0
   53.6673  157.2672   -2.5761 N   0  0  0  0  0  0  0  0  0  0  0  0
   59.2455  160.5111   -3.4846 N   0  0  1  0  0  0  0  0  0  0  0  0
   59.9335  161.5193   -6.9574 S   0  0  0  0  0  0  0  0  0  0  0  0
   56.4873  160.3029   -4.5550 H   0  0  0  0  0  0  0  0  0  0  0  0
   54.4628  158.8779   -4.5441 H   0  0  0  0  0  0  0  0  0  0  0  0
   55.4448  157.4504   -0.5857 H   0  0  0  0  0  0  0  0  0  0  0  0
   61.8889  162.4249   -8.1427 H   0  0  0  0  0  0  0  0  0  0  0  0
   57.4800  159.6954    0.3890 H   0  0  0  0  0  0  0  0  0  0  0  0
   58.1024  158.0539    0.0215 H   0  0  0  0  0  0  0  0  0  0  0  0
   59.5293  160.3447   -0.5339 H   0  0  0  0  0  0  0  0  0  0  0  0
   59.7226  158.8937   -1.5095 H   0  0  0  0  0  0  0  0  0  0  0  0
   58.1137  161.4601   -1.9998 H   0  0  0  0  0  0  0  0  0  0  0  0
   62.0039  162.7416   -3.1588 H   0  0  0  0  0  0  0  0  0  0  0  0
   61.9156  164.3636   -3.8884 H   0  0  0  0  0  0  0  0  0  0  0  0
   60.4735  163.6525   -3.1659 H   0  0  0  0  0  0  0  0  0  0  0  0
   59.9694  159.2915   -5.0417 H   0  0  0  0  0  0  0  0  0  0  0  0
   58.3015  158.9454   -4.5337 H   0  0  0  0  0  0  0  0  0  0  0  0
   59.6639  158.4453   -3.5086 H   0  0  0  0  0  0  0  0  0  0  0  0
   58.4559  162.4105   -3.7976 H   0  0  0  0  0  0  0  0  0  0  0  0
   57.9614  161.1902   -4.9715 H   0  0  0  0  0  0  0  0  0  0  0  0
   53.0471  157.3166   -3.3578 H   0  0  0  0  0  0  0  0  0  0  0  0
   53.4393  156.7350   -1.7619 H   0  0  0  0  0  0  0  0  0  0  0  0
  1  2  1  0  0  0  0
  1  5  2  0  0  0  0
  2  7  2  0  0  0  0
  3  6  2  0  0  0  0
  3  7  1  0  0  0  0
  4 16  2  0  0  0  0
  4 19  1  0  0  0  0
  5  6  1  0  0  0  0
  5 12  1  0  0  0  0
  6 10  1  0  0  0  0
  7 17  1  0  0  0  0
  8  9  2  0  0  0  0
  8 13  1  0  0  0  0
  8 16  1  0  0  0  0
  9 15  1  0  0  0  0
  9 19  1  0  0  0  0
 10 11  1  0  0  0  0
 11 12  1  0  0  0  0
 12 18  1  0  0  0  0
 14 18  1  0  0  0  0
 15 18  1  0  0  0  0
  1 20  1  0  0  0  0
  2 21  1  0  0  0  0
  3 22  1  0  0  0  0
  4 23  1  0  0  0  0
 10 24  1  0  0  0  0
 10 25  1  0  0  0  0
 11 26  1  0  0  0  0
 11 27  1  0  0  0  0
 12 28  1  0  0  0  0
 13 29  1  0  0  0  0
 13 30  1  0  0  0  0
 13 31  1  0  0  0  0
 14 32  1  0  0  0  0
 14 33  1  0  0  0  0
 14 34  1  0  0  0  0
 15 35  1  0  0  0  0
 15 36  1  0  0  0  0
 17 37  1  0  0  0  0
 17 38  1  0  0  0  0
M  END
> <FRED Chemgauss4 score>
-5.675685

$$$$
C94297055	P147797732
  -OEChem-05122015083D

 38 38  0     1  0  0  0  0  0999 V2000
   54.6444  154.8125   -6.1866 C   0  0  0  0  0  0  0  0  0  0  0  0
   54.5149  156.9149   -5.5557 C   0  0  0  0  0  0  0  0  0  0  0  0
   53.7602  155.7719   -5.6580 C   0  0  0  0  0  0  0  0  0  0  0  0
   58.8871  160.7761   -4.2445 C   0  0  0  0  0  0  0  0  0  0  0  0
   54.3463  160.3658   -1.4895 C   0  0  0  0  0  0  0  0  0  0  0  0
   56.9159  157.4731   -6.1011 C   0  0  0  0  0  0  0  0  0  0  0  0
   58.1996  159.1944   -2.5718 C   0  0  0  0  0  0  0  0  0  0  0  0
   58.8571  158.4279   -4.7519 C   0  0  0  0  0  0  0  0  0  0  0  0
   57.0614  159.8890   -1.8491 C   0  0  0  0  0  0  0  0  0  0  0  0
   57.9231  157.2325   -4.9697 C   0  0  2  0  0  0  0  0  0  0  0  0
   55.8673  155.3033   -6.4050 N   0  0  0  0  0  0  0  0  0  0  0  0
   55.7568  156.5836   -6.0118 N   0  0  0  0  0  0  0  0  0  0  0  0
   52.4654  155.6129   -5.3255 N   0  0  0  0  0  0  0  0  0  0  0  0
   58.2122  159.4989   -4.0042 N   0  0  2  0  0  0  0  0  0  0  0  0
   55.3895  159.9866   -3.8561 O   0  0  0  0  0  0  0  0  0  0  0  0
   55.2595  158.0394   -2.2551 O   0  0  0  0  0  0  0  0  0  0  0  0
   58.7268  156.1033   -5.3198 O   0  0  0  0  0  0  0  0  0  0  0  0
   55.4824  159.4527   -2.5080 S   0  0  0  0  0  0  0  0  0  0  0  0
   54.4525  153.7752   -6.4223 H   0  0  0  0  0  0  0  0  0  0  0  0
   54.2809  157.9117   -5.2067 H   0  0  0  0  0  0  0  0  0  0  0  0
   58.8953  161.0013   -5.3142 H   0  0  0  0  0  0  0  0  0  0  0  0
   59.9193  160.7315   -3.8864 H   0  0  0  0  0  0  0  0  0  0  0  0
   58.3684  161.5825   -3.7191 H   0  0  0  0  0  0  0  0  0  0  0  0
   53.3316  160.1536   -1.8300 H   0  0  0  0  0  0  0  0  0  0  0  0
   54.4774  160.0454   -0.4549 H   0  0  0  0  0  0  0  0  0  0  0  0
   54.5698  161.4287   -1.5922 H   0  0  0  0  0  0  0  0  0  0  0  0
   57.3783  157.3078   -7.0819 H   0  0  0  0  0  0  0  0  0  0  0  0
   56.5229  158.4962   -6.0879 H   0  0  0  0  0  0  0  0  0  0  0  0
   59.1722  159.4863   -2.1636 H   0  0  0  0  0  0  0  0  0  0  0  0
   58.0980  158.1089   -2.4784 H   0  0  0  0  0  0  0  0  0  0  0  0
   59.7551  158.1009   -4.2142 H   0  0  0  0  0  0  0  0  0  0  0  0
   59.2048  158.8119   -5.7182 H   0  0  0  0  0  0  0  0  0  0  0  0
   57.1482  160.9743   -1.9564 H   0  0  0  0  0  0  0  0  0  0  0  0
   57.0440  159.6396   -0.7839 H   0  0  0  0  0  0  0  0  0  0  0  0
   57.4024  156.9864   -4.0361 H   0  0  0  0  0  0  0  0  0  0  0  0
   51.9607  154.7252   -5.4804 H   0  0  0  0  0  0  0  0  0  0  0  0
   51.8827  156.3952   -4.9862 H   0  0  0  0  0  0  0  0  0  0  0  0
   59.3504  155.9765   -4.5896 H   0  0  0  0  0  0  0  0  0  0  0  0
  1  3  1  0  0  0  0
  1 11  2  0  0  0  0
  2  3  2  0  0  0  0
  2 12  1  0  0  0  0
  3 13  1  0  0  0  0
  4 14  1  0  0  0  0
  5 18  1  0  0  0  0
  6 10  1  0  0  0  0
  6 12  1  0  0  0  0
  7  9  1  0  0  0  0
  7 14  1  0  0  0  0
  8 10  1  0  0  0  0
  8 14  1  0  0  0  0
  9 18  1  0  0  0  0
 10 17  1  0  0  0  0
 11 12  1  0  0  0  0
 15 18  2  0  0  0  0
 16 18  2  0  0  0  0
  1 19  1  0  0  0  0
  2 20  1  0  0  0  0
  4 21  1  0  0  0  0
  4 22  1  0  0  0  0
  4 23  1  0  0  0  0
  5 24  1  0  0  0  0
  5 25  1  0  0  0  0
  5 26  1  0  0  0  0
  6 27  1  0  0  0  0
  6 28  1  0  0  0  0
  7 29  1  0  0  0  0
  7 30  1  0  0  0  0
  8 31  1  0  0  0  0
  8 32  1  0  0  0  0
  9 33  1  0  0  0  0
  9 34  1  0  0  0  0
 10 35  1  0  0  0  0
 13 36  1  0  0  0  0
 13 37  1  0  0  0  0
 17 38  1  0  0  0  0
M  END
> <FRED Chemgauss4 score>
-5.670154

$$$$
C86434269	P135332511
  -OEChem-05122015083D

 28 27  0     0  0  0  0  0  0999 V2000
   55.1990  162.1011   -3.7071 C   0  0  0  0  0  0  0  0  0  0  0  0
   55.8266  159.3680   -2.1127 C   0  0  0  0  0  0  0  0  0  0  0  0
   58.1292  159.5292   -2.9746 C   0  0  0  0  0  0  0  0  0  0  0  0
   56.6018  162.3793   -3.3652 C   0  0  0  0  0  0  0  0  0  0  0  0
   55.9074  157.8923   -2.4420 C   0  0  0  0  0  0  0  0  0  0  0  0
   57.0592  161.5869   -2.1451 C   0  0  0  0  0  0  0  0  0  0  0  0
   53.2246  155.5364   -3.3339 C   0  0  0  0  0  0  0  0  0  0  0  0
   54.6368  156.0074   -3.0382 C   0  0  0  0  0  0  0  0  0  0  0  0
   54.0922  161.8829   -3.9786 N   0  0  0  0  0  0  0  0  0  0  0  0
   52.6644  156.3212   -4.4578 N   0  0  0  0  0  0  0  0  0  0  0  0
   56.9491  160.1503   -2.3859 N   0  0  0  0  0  0  0  0  0  0  0  0
   54.7855  159.8085   -1.6158 O   0  0  0  0  0  0  0  0  0  0  0  0
   54.6157  157.3963   -2.7212 O   0  0  0  0  0  0  0  0  0  0  0  0
   58.0681  159.5652   -4.0654 H   0  0  0  0  0  0  0  0  0  0  0  0
   58.2029  158.4844   -2.6606 H   0  0  0  0  0  0  0  0  0  0  0  0
   59.0326  160.0556   -2.6551 H   0  0  0  0  0  0  0  0  0  0  0  0
   56.7097  163.4496   -3.1541 H   0  0  0  0  0  0  0  0  0  0  0  0
   57.2425  162.1557   -4.2262 H   0  0  0  0  0  0  0  0  0  0  0  0
   56.5735  157.7125   -3.2899 H   0  0  0  0  0  0  0  0  0  0  0  0
   56.3183  157.3487   -1.5849 H   0  0  0  0  0  0  0  0  0  0  0  0
   58.1057  161.8230   -1.9259 H   0  0  0  0  0  0  0  0  0  0  0  0
   56.4673  161.8530   -1.2623 H   0  0  0  0  0  0  0  0  0  0  0  0
   53.2095  154.4782   -3.6135 H   0  0  0  0  0  0  0  0  0  0  0  0
   52.5826  155.6854   -2.4605 H   0  0  0  0  0  0  0  0  0  0  0  0
   55.2696  155.8719   -3.9208 H   0  0  0  0  0  0  0  0  0  0  0  0
   55.0755  155.4609   -2.1970 H   0  0  0  0  0  0  0  0  0  0  0  0
   51.6808  156.3930   -4.5085 H   0  0  0  0  0  0  0  0  0  0  0  0
   53.2801  156.5516   -5.1947 H   0  0  0  0  0  0  0  0  0  0  0  0
  1  4  1  0  0  0  0
  1  9  3  0  0  0  0
  2  5  1  0  0  0  0
  2 11  1  0  0  0  0
  2 12  2  0  0  0  0
  3 11  1  0  0  0  0
  4  6  1  0  0  0  0
  5 13  1  0  0  0  0
  6 11  1  0  0  0  0
  7  8  1  0  0  0  0
  7 10  1  0  0  0  0
  8 13  1  0  0  0  0
  3 14  1  0  0  0  0
  3 15  1  0  0  0  0
  3 16  1  0  0  0  0
  4 17  1  0  0  0  0
  4 18  1  0  0  0  0
  5 19  1  0  0  0  0
  5 20  1  0  0  0  0
  6 21  1  0  0  0  0
  6 22  1  0  0  0  0
  7 23  1  0  0  0  0
  7 24  1  0  0  0  0
  8 25  1  0  0  0  0
  8 26  1  0  0  0  0
 10 27  1  0  0  0  0
 10 28  1  0  0  0  0
M  END
> <FRED Chemgauss4 score>
-5.666584

$$$$
C89190673	P139492299
  -OEChem-05122015083D

 36 37  0     1  0  0  0  0  0999 V2000
   56.9395  160.0264   -2.7626 C   0  0  0  0  0  0  0  0  0  0  0  0
   55.9759  158.7270   -0.9682 C   0  0  0  0  0  0  0  0  0  0  0  0
   57.4922  160.9043   -1.8302 C   0  0  0  0  0  0  0  0  0  0  0  0
   56.5287  159.6049   -0.0357 C   0  0  0  0  0  0  0  0  0  0  0  0
   55.9710  155.0120   -5.2854 C   0  0  0  0  0  0  0  0  0  0  0  0
   56.1813  158.9378   -2.3316 C   0  0  0  0  0  0  0  0  0  0  0  0
   57.2868  160.6935   -0.4668 C   0  0  0  0  0  0  0  0  0  0  0  0
   55.5475  154.7109   -6.5938 C   0  0  0  0  0  0  0  0  0  0  0  0
   56.2125  156.3640   -5.3053 C   0  0  0  0  0  0  0  0  0  0  0  0
   55.1586  153.3960   -7.1308 C   0  0  0  0  0  0  0  0  0  0  0  0
   54.6100  158.7154   -4.3101 C   0  0  0  0  0  0  0  0  0  0  0  0
   56.0281  158.1186   -7.0946 C   0  0  0  0  0  0  0  0  0  0  0  0
   56.6906  157.3050   -4.2196 C   0  0  0  0  0  0  0  0  0  0  0  0
   55.5732  157.9689   -3.3590 C   0  0  1  0  0  0  0  0  0  0  0  0
   55.5202  155.7852   -7.3870 N   0  0  0  0  0  0  0  0  0  0  0  0
   55.9296  156.7745   -6.5748 N   0  0  0  0  0  0  0  0  0  0  0  0
   54.7701  156.9282   -2.7211 N   0  0  0  0  0  0  0  0  0  0  0  0
   57.9689  161.7765    0.6833 Cl  0  0  0  0  0  0  0  0  0  0  0  0
   57.1038  160.1976   -3.8233 H   0  0  0  0  0  0  0  0  0  0  0  0
   55.3866  157.8811   -0.6241 H   0  0  0  0  0  0  0  0  0  0  0  0
   58.0810  161.7480   -2.1809 H   0  0  0  0  0  0  0  0  0  0  0  0
   56.3602  159.4281    1.0235 H   0  0  0  0  0  0  0  0  0  0  0  0
   56.0862  154.3427   -4.4450 H   0  0  0  0  0  0  0  0  0  0  0  0
   54.0778  153.2142   -7.0018 H   0  0  0  0  0  0  0  0  0  0  0  0
   55.3851  153.3016   -8.2078 H   0  0  0  0  0  0  0  0  0  0  0  0
   55.6963  152.5676   -6.6357 H   0  0  0  0  0  0  0  0  0  0  0  0
   54.1577  158.0544   -5.0567 H   0  0  0  0  0  0  0  0  0  0  0  0
   53.7974  159.1972   -3.7525 H   0  0  0  0  0  0  0  0  0  0  0  0
   55.1366  159.5051   -4.8603 H   0  0  0  0  0  0  0  0  0  0  0  0
   57.0369  158.2528   -7.4938 H   0  0  0  0  0  0  0  0  0  0  0  0
   55.2832  158.2598   -7.8827 H   0  0  0  0  0  0  0  0  0  0  0  0
   55.8366  158.8327   -6.2887 H   0  0  0  0  0  0  0  0  0  0  0  0
   57.3755  156.7445   -3.5671 H   0  0  0  0  0  0  0  0  0  0  0  0
   57.3146  158.0802   -4.6863 H   0  0  0  0  0  0  0  0  0  0  0  0
   53.8261  157.1438   -2.4855 H   0  0  0  0  0  0  0  0  0  0  0  0
   55.2416  156.1263   -2.3636 H   0  0  0  0  0  0  0  0  0  0  0  0
  1  3  2  0  0  0  0
  1  6  1  0  0  0  0
  2  4  1  0  0  0  0
  2  6  2  0  0  0  0
  3  7  1  0  0  0  0
  4  7  2  0  0  0  0
  5  8  1  0  0  0  0
  5  9  2  0  0  0  0
  6 14  1  0  0  0  0
  7 18  1  0  0  0  0
  8 10  1  0  0  0  0
  8 15  2  0  0  0  0
  9 13  1  0  0  0  0
  9 16  1  0  0  0  0
 11 14  1  0  0  0  0
 12 16  1  0  0  0  0
 13 14  1  0  0  0  0
 14 17  1  0  0  0  0
 15 16  1  0  0  0  0
  1 19  1  0  0  0  0
  2 20  1  0  0  0  0
  3 21  1  0  0  0  0
  4 22  1  0  0  0  0
  5 23  1  0  0  0  0
 10 24  1  0  0  0  0
 10 25  1  0  0  0  0
 10 26  1  0  0  0  0
 11 27  1  0  0  0  0
 11 28  1  0  0  0  0
 11 29  1  0  0  0  0
 12 30  1  0  0  0  0
 12 31  1  0  0  0  0
 12 32  1  0  0  0  0
 13 33  1  0  0  0  0
 13 34  1  0  0  0  0
 17 35  1  0  0  0  0
 17 36  1  0  0  0  0
M  END
> <FRED Chemgauss4 score>
-5.662047

$$$$
C49330080	P73697318
  -OEChem-05122015083D

 27 27  0     0  0  0  0  0  0999 V2000
   58.9901  154.9673   -6.7125 C   0  0  0  0  0  0  0  0  0  0  0  0
   57.9816  154.0365   -6.7981 C   0  0  0  0  0  0  0  0  0  0  0  0
   57.1902  156.0434   -6.3477 C   0  0  0  0  0  0  0  0  0  0  0  0
   56.1928  157.0942   -6.0597 C   0  0  0  0  0  0  0  0  0  0  0  0
   55.4843  154.1860   -6.5457 C   0  0  0  0  0  0  0  0  0  0  0  0
   55.1727  153.4070   -5.2724 C   0  0  0  0  0  0  0  0  0  0  0  0
   54.0116  155.0115   -3.9167 C   0  0  0  0  0  0  0  0  0  0  0  0
   54.1267  155.8970   -2.6894 C   0  0  0  0  0  0  0  0  0  0  0  0
   58.4908  156.2145   -6.4316 N   0  0  0  0  0  0  0  0  0  0  0  0
   56.8347  154.7406   -6.5617 N   0  0  0  0  0  0  0  0  0  0  0  0
   55.2579  154.2294   -4.0835 N   0  0  0  0  0  0  0  0  0  0  0  0
   52.9423  156.6720   -2.5535 O   0  0  0  0  0  0  0  0  0  0  0  0
   60.0502  154.8027   -6.8388 H   0  0  0  0  0  0  0  0  0  0  0  0
   57.9821  152.9743   -6.9991 H   0  0  0  0  0  0  0  0  0  0  0  0
   55.8353  157.5664   -6.9889 H   0  0  0  0  0  0  0  0  0  0  0  0
   55.3141  156.6942   -5.5264 H   0  0  0  0  0  0  0  0  0  0  0  0
   56.6052  157.8892   -5.4157 H   0  0  0  0  0  0  0  0  0  0  0  0
   55.3974  153.5299   -7.4201 H   0  0  0  0  0  0  0  0  0  0  0  0
   54.7772  155.0117   -6.6889 H   0  0  0  0  0  0  0  0  0  0  0  0
   54.1518  153.0151   -5.3140 H   0  0  0  0  0  0  0  0  0  0  0  0
   55.8590  152.5645   -5.1390 H   0  0  0  0  0  0  0  0  0  0  0  0
   53.1765  154.3101   -3.8231 H   0  0  0  0  0  0  0  0  0  0  0  0
   53.8687  155.6211   -4.8141 H   0  0  0  0  0  0  0  0  0  0  0  0
   54.9699  156.5855   -2.8018 H   0  0  0  0  0  0  0  0  0  0  0  0
   54.2673  155.3061   -1.7784 H   0  0  0  0  0  0  0  0  0  0  0  0
   55.3736  153.6492   -3.2625 H   0  0  0  0  0  0  0  0  0  0  0  0
   53.0568  157.2209   -1.7611 H   0  0  0  0  0  0  0  0  0  0  0  0
  1  2  2  0  0  0  0
  1  9  1  0  0  0  0
  2 10  1  0  0  0  0
  3  4  1  0  0  0  0
  3  9  2  0  0  0  0
  3 10  1  0  0  0  0
  5  6  1  0  0  0  0
  5 10  1  0  0  0  0
  6 11  1  0  0  0  0
  7  8  1  0  0  0  0
  7 11  1  0  0  0  0
  8 12  1  0  0  0  0
  1 13  1  0  0  0  0
  2 14  1  0  0  0  0
  4 15  1  0  0  0  0
  4 16  1  0  0  0  0
  4 17  1  0  0  0  0
  5 18  1  0  0  0  0
  5 19  1  0  0  0  0
  6 20  1  0  0  0  0
  6 21  1  0  0  0  0
  7 22  1  0  0  0  0
  7 23  1  0  0  0  0
  8 24  1  0  0  0  0
  8 25  1  0  0  0  0
 11 26  1  0  0  0  0
 12 27  1  0  0  0  0
M  END
> <FRED Chemgauss4 score>
-5.661236

$$$$
C42040894	P63623732
  -OEChem-05122015083D

 20 20  0     1  0  0  0  0  0999 V2000
   54.2473  155.6773   -6.2250 C   0  0  0  0  0  0  0  0  0  0  0  0
   54.2176  157.0691   -4.6697 C   0  0  0  0  0  0  0  0  0  0  0  0
   57.1352  158.1805   -3.8116 C   0  0  0  0  0  0  0  0  0  0  0  0
   54.5694  158.0848   -3.5914 C   0  0  2  0  0  0  0  0  0  0  0  0
   55.8110  158.9211   -3.9867 C   0  0  2  0  0  0  0  0  0  0  0  0
   55.0666  156.4655   -5.4687 N   0  0  0  0  0  0  0  0  0  0  0  0
   52.9530  156.6520   -4.9464 N   0  0  0  0  0  0  0  0  0  0  0  0
   52.9448  155.7553   -5.9444 N   0  0  0  0  0  0  0  0  0  0  0  0
   54.7512  157.4124   -2.3002 N   0  0  0  0  0  0  0  0  0  0  0  0
   55.7087  159.2843   -5.3679 O   0  0  0  0  0  0  0  0  0  0  0  0
   54.6286  155.0296   -7.0035 H   0  0  0  0  0  0  0  0  0  0  0  0
   57.1507  157.2356   -4.3620 H   0  0  0  0  0  0  0  0  0  0  0  0
   57.3326  157.9757   -2.7536 H   0  0  0  0  0  0  0  0  0  0  0  0
   57.9662  158.7973   -4.1718 H   0  0  0  0  0  0  0  0  0  0  0  0
   53.7202  158.7729   -3.4840 H   0  0  0  0  0  0  0  0  0  0  0  0
   55.8565  159.8549   -3.4147 H   0  0  0  0  0  0  0  0  0  0  0  0
   52.0941  155.3254   -6.2968 H   0  0  0  0  0  0  0  0  0  0  0  0
   54.1838  156.6196   -2.1079 H   0  0  0  0  0  0  0  0  0  0  0  0
   55.2749  157.8872   -1.6016 H   0  0  0  0  0  0  0  0  0  0  0  0
   56.4707  159.8511   -5.5548 H   0  0  0  0  0  0  0  0  0  0  0  0
  1  6  2  0  0  0  0
  1  8  1  0  0  0  0
  2  4  1  0  0  0  0
  2  6  1  0  0  0  0
  2  7  2  0  0  0  0
  3  5  1  0  0  0  0
  4  5  1  0  0  0  0
  4  9  1  0  0  0  0
  5 10  1  0  0  0  0
  7  8  1  0  0  0  0
  1 11  1  0  0  0  0
  3 12  1  0  0  0  0
  3 13  1  0  0  0  0
  3 14  1  0  0  0  0
  4 15  1  0  0  0  0
  5 16  1  0  0  0  0
  8 17  1  0  0  0  0
  9 18  1  0  0  0  0
  9 19  1  0  0  0  0
 10 20  1  0  0  0  0
M  END
> <FRED Chemgauss4 score>
-5.659671

$$$$
C42920684	P64883579
  -OEChem-05122015083D

 19 19  0     1  0  0  0  0  0999 V2000
   53.2095  155.6329   -3.9973 C   0  0  0  0  0  0  0  0  0  0  0  0
   54.5333  155.9038   -3.3226 C   0  0  0  0  0  0  0  0  0  0  0  0
   54.3796  155.9877   -6.1550 C   0  0  0  0  0  0  0  0  0  0  0  0
   55.6105  155.3792   -5.5024 C   0  0  1  0  0  0  0  0  0  0  0  0
   56.8834  155.7745   -6.2382 C   0  0  0  0  0  0  0  0  0  0  0  0
   53.2044  155.6647   -5.3748 N   0  0  0  0  0  0  0  0  0  0  0  0
   55.6589  155.8014   -4.1120 N   0  0  0  0  0  0  0  0  0  0  0  0
   57.0211  157.1919   -6.2358 N   0  0  0  0  0  0  0  0  0  0  0  0
   52.2390  155.4068   -3.2868 O   0  0  0  0  0  0  0  0  0  0  0  0
   54.5223  156.1920   -2.1333 O   0  0  0  0  0  0  0  0  0  0  0  0
   54.4526  157.0733   -6.2387 H   0  0  0  0  0  0  0  0  0  0  0  0
   54.2225  155.5676   -7.1518 H   0  0  0  0  0  0  0  0  0  0  0  0
   55.5236  154.2935   -5.5093 H   0  0  0  0  0  0  0  0  0  0  0  0
   56.8179  155.4220   -7.2590 H   0  0  0  0  0  0  0  0  0  0  0  0
   57.7322  155.3310   -5.7355 H   0  0  0  0  0  0  0  0  0  0  0  0
   52.3588  155.3850   -5.8625 H   0  0  0  0  0  0  0  0  0  0  0  0
   56.5504  156.0738   -3.7204 H   0  0  0  0  0  0  0  0  0  0  0  0
   56.1978  157.7797   -6.3111 H   0  0  0  0  0  0  0  0  0  0  0  0
   57.9362  157.6107   -6.3642 H   0  0  0  0  0  0  0  0  0  0  0  0
  1  2  1  0  0  0  0
  1  6  1  0  0  0  0
  1  9  2  0  0  0  0
  2  7  1  0  0  0  0
  2 10  2  0  0  0  0
  3  4  1  0  0  0  0
  3  6  1  0  0  0  0
  4  5  1  0  0  0  0
  4  7  1  0  0  0  0
  5  8  1  0  0  0  0
  3 11  1  0  0  0  0
  3 12  1  0  0  0  0
  4 13  1  0  0  0  0
  5 14  1  0  0  0  0
  5 15  1  0  0  0  0
  6 16  1  0  0  0  0
  7 17  1  0  0  0  0
  8 18  1  0  0  0  0
  8 19  1  0  0  0  0
M  END
> <FRED Chemgauss4 score>
-5.658115

$$$$
C37677234	P56041032
  -OEChem-05122015083D

 24 24  0     1  0  0  0  0  0999 V2000
   57.2596  155.8701   -6.2005 C   0  0  0  0  0  0  0  0  0  0  0  0
   56.0491  154.1161   -6.7419 C   0  0  0  0  0  0  0  0  0  0  0  0
   57.3476  154.5628   -6.7152 C   0  0  0  0  0  0  0  0  0  0  0  0
   58.5572  153.8368   -7.1338 C   0  0  0  0  0  0  0  0  0  0  0  0
   53.8371  155.1467   -6.0964 C   0  0  0  0  0  0  0  0  0  0  0  0
   53.9739  155.5003   -3.5752 C   0  0  0  0  0  0  0  0  0  0  0  0
   53.3881  155.9970   -4.9014 C   0  0  2  0  0  0  0  0  0  0  0  0
   56.0043  156.2307   -5.9206 N   0  0  0  0  0  0  0  0  0  0  0  0
   55.2916  155.1432   -6.2607 N   0  0  0  0  0  0  0  0  0  0  0  0
   53.5718  156.3349   -2.4511 N   0  0  0  0  0  0  0  0  0  0  0  0
   51.9635  155.9215   -4.8098 O   0  0  0  0  0  0  0  0  0  0  0  0
   58.0562  156.5774   -6.0176 H   0  0  0  0  0  0  0  0  0  0  0  0
   55.6103  153.1787   -7.0558 H   0  0  0  0  0  0  0  0  0  0  0  0
   58.9966  153.2704   -6.2942 H   0  0  0  0  0  0  0  0  0  0  0  0
   58.3529  153.1177   -7.9476 H   0  0  0  0  0  0  0  0  0  0  0  0
   59.3391  154.5151   -7.5211 H   0  0  0  0  0  0  0  0  0  0  0  0
   53.4047  155.5225   -7.0318 H   0  0  0  0  0  0  0  0  0  0  0  0
   53.5351  154.0986   -5.9890 H   0  0  0  0  0  0  0  0  0  0  0  0
   53.6514  154.4682   -3.3933 H   0  0  0  0  0  0  0  0  0  0  0  0
   55.0681  155.4699   -3.6376 H   0  0  0  0  0  0  0  0  0  0  0  0
   53.6504  157.0505   -5.0580 H   0  0  0  0  0  0  0  0  0  0  0  0
   54.1596  156.3561   -1.6440 H   0  0  0  0  0  0  0  0  0  0  0  0
   52.6390  156.6915   -2.4371 H   0  0  0  0  0  0  0  0  0  0  0  0
   51.7108  156.4658   -4.0495 H   0  0  0  0  0  0  0  0  0  0  0  0
  1  3  1  0  0  0  0
  1  8  2  0  0  0  0
  2  3  2  0  0  0  0
  2  9  1  0  0  0  0
  3  4  1  0  0  0  0
  5  7  1  0  0  0  0
  5  9  1  0  0  0  0
  6  7  1  0  0  0  0
  6 10  1  0  0  0  0
  7 11  1  0  0  0  0
  8  9  1  0  0  0  0
  1 12  1  0  0  0  0
  2 13  1  0  0  0  0
  4 14  1  0  0  0  0
  4 15  1  0  0  0  0
  4 16  1  0  0  0  0
  5 17  1  0  0  0  0
  5 18  1  0  0  0  0
  6 19  1  0  0  0  0
  6 20  1  0  0  0  0
  7 21  1  0  0  0  0
 10 22  1  0  0  0  0
 10 23  1  0  0  0  0
 11 24  1  0  0  0  0
M  END
> <FRED Chemgauss4 score>
-5.656546

$$$$
C41052378	P62314790
  -OEChem-05122015083D

 28 29  0     1  0  0  0  0  0999 V2000
   57.3394  156.3746   -5.8879 C   0  0  0  0  0  0  0  0  0  0  0  0
   56.0863  154.7020   -5.2045 C   0  0  0  0  0  0  0  0  0  0  0  0
   56.2719  156.0515   -5.0290 C   0  0  0  0  0  0  0  0  0  0  0  0
   55.4975  156.9292   -4.1271 C   0  0  0  0  0  0  0  0  0  0  0  0
   54.7893  158.5740   -3.0914 C   0  0  0  0  0  0  0  0  0  0  0  0
   56.3176  159.6694   -0.7152 C   0  0  0  0  0  0  0  0  0  0  0  0
   57.2150  152.9779   -6.6311 C   0  0  0  0  0  0  0  0  0  0  0  0
   55.9280  160.5061   -1.9278 C   0  0  0  0  0  0  0  0  0  0  0  0
   54.6420  160.0012   -2.6041 C   0  0  1  0  0  0  0  0  0  0  0  0
   57.7998  155.3156   -6.5591 N   0  0  0  0  0  0  0  0  0  0  0  0
   55.7306  158.2121   -4.0106 N   0  0  0  0  0  0  0  0  0  0  0  0
   54.0035  157.5891   -2.6459 N   0  0  0  0  0  0  0  0  0  0  0  0
   57.0180  154.3138   -6.1219 N   0  0  0  0  0  0  0  0  0  0  0  0
   54.2338  160.8678   -3.6872 N   0  0  0  0  0  0  0  0  0  0  0  0
   54.4821  156.4750   -3.3467 O   0  0  0  0  0  0  0  0  0  0  0  0
   57.8034  157.3365   -6.0559 H   0  0  0  0  0  0  0  0  0  0  0  0
   55.3891  153.9999   -4.7670 H   0  0  0  0  0  0  0  0  0  0  0  0
   56.4399  158.6164   -0.9882 H   0  0  0  0  0  0  0  0  0  0  0  0
   57.2675  160.0244   -0.3029 H   0  0  0  0  0  0  0  0  0  0  0  0
   55.5635  159.7360    0.0750 H   0  0  0  0  0  0  0  0  0  0  0  0
   56.5860  152.8585   -7.5171 H   0  0  0  0  0  0  0  0  0  0  0  0
   58.2686  152.8381   -6.8885 H   0  0  0  0  0  0  0  0  0  0  0  0
   56.9351  152.2529   -5.8616 H   0  0  0  0  0  0  0  0  0  0  0  0
   55.8161  161.5506   -1.6110 H   0  0  0  0  0  0  0  0  0  0  0  0
   56.7577  160.4797   -2.6457 H   0  0  0  0  0  0  0  0  0  0  0  0
   53.8248  160.0466   -1.8735 H   0  0  0  0  0  0  0  0  0  0  0  0
   54.3997  161.8545   -3.6057 H   0  0  0  0  0  0  0  0  0  0  0  0
   53.6204  160.5031   -4.3932 H   0  0  0  0  0  0  0  0  0  0  0  0
  1  3  1  0  0  0  0
  1 10  2  0  0  0  0
  2  3  2  0  0  0  0
  2 13  1  0  0  0  0
  3  4  1  0  0  0  0
  4 11  2  0  0  0  0
  4 15  1  0  0  0  0
  5  9  1  0  0  0  0
  5 11  1  0  0  0  0
  5 12  2  0  0  0  0
  6  8  1  0  0  0  0
  7 13  1  0  0  0  0
  8  9  1  0  0  0  0
  9 14  1  0  0  0  0
 10 13  1  0  0  0  0
 12 15  1  0  0  0  0
  1 16  1  0  0  0  0
  2 17  1  0  0  0  0
  6 18  1  0  0  0  0
  6 19  1  0  0  0  0
  6 20  1  0  0  0  0
  7 21  1  0  0  0  0
  7 22  1  0  0  0  0
  7 23  1  0  0  0  0
  8 24  1  0  0  0  0
  8 25  1  0  0  0  0
  9 26  1  0  0  0  0
 14 27  1  0  0  0  0
 14 28  1  0  0  0  0
M  END
> <FRED Chemgauss4 score>
-5.654329

$$$$
C13887744	P21381985
  -OEChem-05122015083D

 22 23  0     1  0  0  0  0  0999 V2000
   56.7587  155.9039   -5.6712 C   0  0  0  0  0  0  0  0  0  0  0  0
   53.7245  156.3242   -3.8600 C   0  0  0  0  0  0  0  0  0  0  0  0
   56.6698  154.6141   -6.4610 C   0  0  0  0  0  0  0  0  0  0  0  0
   55.3245  154.0340   -6.0023 C   0  0  0  0  0  0  0  0  0  0  0  0
   54.9864  157.0891   -4.2644 C   0  0  2  0  0  0  0  0  0  0  0  0
   54.4915  155.2784   -5.7892 C   0  0  1  0  0  0  0  0  0  0  0  0
   54.6728  158.4895   -4.7499 C   0  0  0  0  0  0  0  0  0  0  0  0
   53.5254  155.2633   -4.7471 N   0  0  0  0  0  0  0  0  0  0  0  0
   55.4546  156.2300   -5.3322 N   0  0  0  0  0  0  0  0  0  0  0  0
   57.7881  156.4967   -5.3922 O   0  0  0  0  0  0  0  0  0  0  0  0
   53.0000  156.6274   -2.9217 O   0  0  0  0  0  0  0  0  0  0  0  0
   53.8269  158.4050   -5.8865 O   0  0  0  0  0  0  0  0  0  0  0  0
   56.6678  154.8482   -7.5300 H   0  0  0  0  0  0  0  0  0  0  0  0
   57.5002  153.9466   -6.2193 H   0  0  0  0  0  0  0  0  0  0  0  0
   54.8868  153.3490   -6.7339 H   0  0  0  0  0  0  0  0  0  0  0  0
   55.4590  153.4822   -5.0629 H   0  0  0  0  0  0  0  0  0  0  0  0
   55.7148  157.0892   -3.4482 H   0  0  0  0  0  0  0  0  0  0  0  0
   54.0319  155.6475   -6.7125 H   0  0  0  0  0  0  0  0  0  0  0  0
   55.5917  159.0115   -5.0315 H   0  0  0  0  0  0  0  0  0  0  0  0
   54.1604  159.0594   -3.9698 H   0  0  0  0  0  0  0  0  0  0  0  0
   52.7873  154.5722   -4.6588 H   0  0  0  0  0  0  0  0  0  0  0  0
   53.6458  159.3158   -6.1716 H   0  0  0  0  0  0  0  0  0  0  0  0
  1  3  1  0  0  0  0
  1  9  1  0  0  0  0
  1 10  2  0  0  0  0
  2  5  1  0  0  0  0
  2  8  1  0  0  0  0
  2 11  2  0  0  0  0
  3  4  1  0  0  0  0
  4  6  1  0  0  0  0
  5  7  1  0  0  0  0
  5  9  1  0  0  0  0
  6  8  1  0  0  0  0
  6  9  1  0  0  0  0
  7 12  1  0  0  0  0
  3 13  1  0  0  0  0
  3 14  1  0  0  0  0
  4 15  1  0  0  0  0
  4 16  1  0  0  0  0
  5 17  1  0  0  0  0
  6 18  1  0  0  0  0
  7 19  1  0  0  0  0
  7 20  1  0  0  0  0
  8 21  1  0  0  0  0
 12 22  1  0  0  0  0
M  END
> <FRED Chemgauss4 score>
-5.654101

$$$$
C05829972	P08722974
  -OEChem-05122015083D

 23 23  0     1  0  0  0  0  0999 V2000
   54.1462  157.0170   -5.7195 C   0  0  1  0  0  0  0  0  0  0  0  0
   53.3701  155.1548   -4.2139 C   0  0  1  0  0  0  0  0  0  0  0  0
   54.1914  155.5166   -5.4442 C   0  0  1  0  0  0  0  0  0  0  0  0
   54.4959  157.8024   -4.4482 C   0  0  1  0  0  0  0  0  0  0  0  0
   53.8037  156.0186   -3.0302 C   0  0  1  0  0  0  0  0  0  0  0  0
   54.3068  159.3029   -4.6471 C   0  0  0  0  0  0  0  0  0  0  0  0
   53.6593  157.4032   -3.3569 O   0  0  0  0  0  0  0  0  0  0  0  0
   55.0872  157.3336   -6.7403 O   0  0  0  0  0  0  0  0  0  0  0  0
   51.9885  155.4127   -4.4777 O   0  0  0  0  0  0  0  0  0  0  0  0
   53.0027  155.6822   -1.9015 O   0  0  0  0  0  0  0  0  0  0  0  0
   55.1635  159.7307   -5.6901 O   0  0  0  0  0  0  0  0  0  0  0  0
   53.6876  154.8541   -6.5214 F   0  0  0  0  0  0  0  0  0  0  0  0
   53.1475  157.2893   -6.0843 H   0  0  0  0  0  0  0  0  0  0  0  0
   53.4554  154.0880   -3.9838 H   0  0  0  0  0  0  0  0  0  0  0  0
   55.2284  155.1835   -5.3241 H   0  0  0  0  0  0  0  0  0  0  0  0
   55.5454  157.6338   -4.1752 H   0  0  0  0  0  0  0  0  0  0  0  0
   54.8507  155.8135   -2.7709 H   0  0  0  0  0  0  0  0  0  0  0  0
   54.5618  159.8347   -3.7304 H   0  0  0  0  0  0  0  0  0  0  0  0
   53.2730  159.5149   -4.9200 H   0  0  0  0  0  0  0  0  0  0  0  0
   55.9582  157.0670   -6.4068 H   0  0  0  0  0  0  0  0  0  0  0  0
   51.9220  156.3581   -4.6768 H   0  0  0  0  0  0  0  0  0  0  0  0
   53.3024  156.2459   -1.1712 H   0  0  0  0  0  0  0  0  0  0  0  0
   55.0258  160.6873   -5.7983 H   0  0  0  0  0  0  0  0  0  0  0  0
  1  3  1  0  0  0  0
  1  4  1  0  0  0  0
  1  8  1  0  0  0  0
  2  3  1  0  0  0  0
  2  5  1  0  0  0  0
  2  9  1  0  0  0  0
  3 12  1  0  0  0  0
  4  6  1  0  0  0  0
  4  7  1  0  0  0  0
  5  7  1  0  0  0  0
  5 10  1  0  0  0  0
  6 11  1  0  0  0  0
  1 13  1  0  0  0  0
  2 14  1  0  0  0  0
  3 15  1  0  0  0  0
  4 16  1  0  0  0  0
  5 17  1  0  0  0  0
  6 18  1  0  0  0  0
  6 19  1  0  0  0  0
  8 20  1  0  0  0  0
  9 21  1  0  0  0  0
 10 22  1  0  0  0  0
 11 23  1  0  0  0  0
M  END
> <FRED Chemgauss4 score>
-5.652230

$$$$
C34538857	P89695694
  -OEChem-05122015083D

 17 17  0     1  0  0  0  0  0999 V2000
   53.2388  156.2209   -3.9432 C   0  0  0  0  0  0  0  0  0  0  0  0
   53.8000  156.5614   -6.2063 C   0  0  1  0  0  0  0  0  0  0  0  0
   54.9578  157.0476   -5.3344 C   0  0  2  0  0  0  0  0  0  0  0  0
   55.1581  157.4489   -2.8288 C   0  0  0  0  0  0  0  0  0  0  0  0
   52.9165  155.9044   -5.2755 N   0  0  0  0  0  0  0  0  0  0  0  0
   54.4205  156.9846   -3.9851 N   0  0  0  0  0  0  0  0  0  0  0  0
   52.6057  155.8811   -2.9525 O   0  0  0  0  0  0  0  0  0  0  0  0
   53.1003  157.6465   -6.7927 O   0  0  0  0  0  0  0  0  0  0  0  0
   55.3818  158.3592   -5.6491 O   0  0  0  0  0  0  0  0  0  0  0  0
   54.1049  155.8534   -6.9483 H   0  0  0  0  0  0  0  0  0  0  0  0
   55.8374  156.3548   -5.4175 H   0  0  0  0  0  0  0  0  0  0  0  0
   55.9064  156.7071   -2.5378 H   0  0  0  0  0  0  0  0  0  0  0  0
   54.4788  157.6120   -1.9877 H   0  0  0  0  0  0  0  0  0  0  0  0
   55.6656  158.3900   -3.0570 H   0  0  0  0  0  0  0  0  0  0  0  0
   52.1536  155.2878   -5.5486 H   0  0  0  0  0  0  0  0  0  0  0  0
   52.3809  157.2712   -7.3313 H   0  0  0  0  0  0  0  0  0  0  0  0
   55.6687  158.3472   -6.5770 H   0  0  0  0  0  0  0  0  0  0  0  0
  1  5  1  0  0  0  0
  1  6  1  0  0  0  0
  1  7  2  0  0  0  0
  2  3  1  0  0  0  0
  2  5  1  0  0  0  0
  2  8  1  0  0  0  0
  3  6  1  0  0  0  0
  3  9  1  0  0  0  0
  4  6  1  0  0  0  0
  2 10  1  0  0  0  0
  3 11  1  0  0  0  0
  4 12  1  0  0  0  0
  4 13  1  0  0  0  0
  4 14  1  0  0  0  0
  5 15  1  0  0  0  0
  8 16  1  0  0  0  0
  9 17  1  0  0  0  0
M  END
> <FRED Chemgauss4 score>
-5.641395

$$$$
C87343894	P136653808
  -OEChem-05122015083D

 23 23  0     1  0  0  0  0  0999 V2000
   56.5065  154.2304   -5.4381 C   0  0  0  0  0  0  0  0  0  0  0  0
   56.2454  155.2408   -6.3333 C   0  0  0  0  0  0  0  0  0  0  0  0
   54.6020  155.0030   -4.8845 C   0  0  0  0  0  0  0  0  0  0  0  0
   53.3719  155.1797   -4.1824 C   0  0  0  0  0  0  0  0  0  0  0  0
   55.7871  158.3367   -5.2700 C   0  0  0  0  0  0  0  0  0  0  0  0
   54.3054  156.8197   -6.6215 C   0  0  0  0  0  0  0  0  0  0  0  0
   54.3901  158.1339   -5.8400 C   0  0  1  0  0  0  0  0  0  0  0  0
   55.4794  154.0872   -4.5391 N   0  0  0  0  0  0  0  0  0  0  0  0
   55.0219  155.7260   -5.9663 N   0  0  0  0  0  0  0  0  0  0  0  0
   52.1848  155.0226   -4.8862 N   0  0  0  0  0  0  0  0  0  0  0  0
   53.4820  158.1059   -4.7410 O   0  0  0  0  0  0  0  0  0  0  0  0
   53.3175  155.5442   -2.5336 S   0  0  0  0  0  0  0  0  0  0  0  0
   57.3821  153.5992   -5.3951 H   0  0  0  0  0  0  0  0  0  0  0  0
   56.8046  155.6412   -7.1677 H   0  0  0  0  0  0  0  0  0  0  0  0
   56.0826  157.4977   -4.6327 H   0  0  0  0  0  0  0  0  0  0  0  0
   56.5194  158.4345   -6.0788 H   0  0  0  0  0  0  0  0  0  0  0  0
   55.8418  159.2606   -4.6834 H   0  0  0  0  0  0  0  0  0  0  0  0
   53.2649  156.4900   -6.7295 H   0  0  0  0  0  0  0  0  0  0  0  0
   54.7256  156.9315   -7.6283 H   0  0  0  0  0  0  0  0  0  0  0  0
   54.1319  158.9924   -6.4703 H   0  0  0  0  0  0  0  0  0  0  0  0
   52.1786  154.7935   -5.8750 H   0  0  0  0  0  0  0  0  0  0  0  0
   51.2791  155.1405   -4.4440 H   0  0  0  0  0  0  0  0  0  0  0  0
   53.5681  158.9601   -4.2906 H   0  0  0  0  0  0  0  0  0  0  0  0
  1  2  2  0  0  0  0
  1  8  1  0  0  0  0
  2  9  1  0  0  0  0
  3  4  1  0  0  0  0
  3  8  2  0  0  0  0
  3  9  1  0  0  0  0
  4 10  1  0  0  0  0
  4 12  2  0  0  0  0
  5  7  1  0  0  0  0
  6  7  1  0  0  0  0
  6  9  1  0  0  0  0
  7 11  1  0  0  0  0
  1 13  1  0  0  0  0
  2 14  1  0  0  0  0
  5 15  1  0  0  0  0
  5 16  1  0  0  0  0
  5 17  1  0  0  0  0
  6 18  1  0  0  0  0
  6 19  1  0  0  0  0
  7 20  1  0  0  0  0
 10 21  1  0  0  0  0
 10 22  1  0  0  0  0
 11 23  1  0  0  0  0
M  END
> <FRED Chemgauss4 score>
-5.638872

$$$$
C89646623	P140145016
  -OEChem-05122015083D

 37 38  0     0  0  0  0  0  0999 V2000
   55.4818  154.8073   -5.4275 C   0  0  0  0  0  0  0  0  0  0  0  0
   55.6518  155.3103   -4.1794 C   0  0  0  0  0  0  0  0  0  0  0  0
   54.1148  154.7292   -6.0197 C   0  0  0  0  0  0  0  0  0  0  0  0
   53.2256  155.7137   -3.9374 C   0  0  0  0  0  0  0  0  0  0  0  0
   56.8819  154.7596   -7.5197 C   0  0  0  0  0  0  0  0  0  0  0  0
   57.2426  153.1693   -6.1739 C   0  0  0  0  0  0  0  0  0  0  0  0
   57.9670  153.6611   -7.4475 C   0  0  0  0  0  0  0  0  0  0  0  0
   59.3794  154.1838   -7.2210 C   0  0  0  0  0  0  0  0  0  0  0  0
   54.9045  159.8502   -3.0521 C   0  0  0  0  0  0  0  0  0  0  0  0
   54.7605  156.2944   -2.1003 C   0  0  0  0  0  0  0  0  0  0  0  0
   55.3235  157.7003   -2.2004 C   0  0  0  0  0  0  0  0  0  0  0  0
   53.0965  155.1920   -5.2169 N   0  0  0  0  0  0  0  0  0  0  0  0
   56.4752  154.3400   -6.2458 N   0  0  0  0  0  0  0  0  0  0  0  0
   54.5383  155.7574   -3.4445 N   0  0  0  0  0  0  0  0  0  0  0  0
   56.9258  155.3757   -3.6489 N   0  0  0  0  0  0  0  0  0  0  0  0
   53.9264  154.2804   -7.1486 O   0  0  0  0  0  0  0  0  0  0  0  0
   52.2319  156.0991   -3.3160 O   0  0  0  0  0  0  0  0  0  0  0  0
   57.9631  152.7346   -8.5534 O   0  0  0  0  0  0  0  0  0  0  0  0
   54.4173  158.5214   -2.9260 O   0  0  0  0  0  0  0  0  0  0  0  0
   57.2388  155.7929   -7.5459 H   0  0  0  0  0  0  0  0  0  0  0  0
   56.1106  154.6094   -8.2816 H   0  0  0  0  0  0  0  0  0  0  0  0
   56.6435  152.2614   -6.2956 H   0  0  0  0  0  0  0  0  0  0  0  0
   57.8504  153.0998   -5.2675 H   0  0  0  0  0  0  0  0  0  0  0  0
   60.0835  153.3523   -7.1822 H   0  0  0  0  0  0  0  0  0  0  0  0
   59.4282  154.7321   -6.2800 H   0  0  0  0  0  0  0  0  0  0  0  0
   59.6654  154.8513   -8.0342 H   0  0  0  0  0  0  0  0  0  0  0  0
   54.1850  160.4512   -3.6134 H   0  0  0  0  0  0  0  0  0  0  0  0
   55.8675  159.8386   -3.5689 H   0  0  0  0  0  0  0  0  0  0  0  0
   55.0335  160.2776   -2.0549 H   0  0  0  0  0  0  0  0  0  0  0  0
   55.4505  155.6271   -1.5742 H   0  0  0  0  0  0  0  0  0  0  0  0
   53.8011  156.3048   -1.5743 H   0  0  0  0  0  0  0  0  0  0  0  0
   56.2742  157.6856   -2.7424 H   0  0  0  0  0  0  0  0  0  0  0  0
   55.4833  158.1413   -1.2111 H   0  0  0  0  0  0  0  0  0  0  0  0
   52.1559  155.1489   -5.5990 H   0  0  0  0  0  0  0  0  0  0  0  0
   57.6736  155.0491   -4.2069 H   0  0  0  0  0  0  0  0  0  0  0  0
   57.0264  155.7458   -2.7378 H   0  0  0  0  0  0  0  0  0  0  0  0
   58.6821  152.1162   -8.3753 H   0  0  0  0  0  0  0  0  0  0  0  0
  1  2  2  0  0  0  0
  1  3  1  0  0  0  0
  1 13  1  0  0  0  0
  2 14  1  0  0  0  0
  2 15  1  0  0  0  0
  3 12  1  0  0  0  0
  3 16  2  0  0  0  0
  4 12  1  0  0  0  0
  4 14  1  0  0  0  0
  4 17  2  0  0  0  0
  5  7  1  0  0  0  0
  5 13  1  0  0  0  0
  6  7  1  0  0  0  0
  6 13  1  0  0  0  0
  7  8  1  0  0  0  0
  7 18  1  0  0  0  0
  9 19  1  0  0  0  0
 10 11  1  0  0  0  0
 10 14  1  0  0  0  0
 11 19  1  0  0  0  0
  5 20  1  0  0  0  0
  5 21  1  0  0  0  0
  6 22  1  0  0  0  0
  6 23  1  0  0  0  0
  8 24  1  0  0  0  0
  8 25  1  0  0  0  0
  8 26  1  0  0  0  0
  9 27  1  0  0  0  0
  9 28  1  0  0  0  0
  9 29  1  0  0  0  0
 10 30  1  0  0  0  0
 10 31  1  0  0  0  0
 11 32  1  0  0  0  0
 11 33  1  0  0  0  0
 12 34  1  0  0  0  0
 15 35  1  0  0  0  0
 15 36  1  0  0  0  0
 18 37  1  0  0  0  0
M  END
> <FRED Chemgauss4 score>
-5.628628

$$$$
C82996710	P129767449
  -OEChem-05122015083D

 33 33  0     1  0  0  0  0  0999 V2000
   54.3797  157.3133   -3.8486 C   0  0  0  0  0  0  0  0  0  0  0  0
   53.9261  156.8315   -6.1110 C   0  0  0  0  0  0  0  0  0  0  0  0
   55.4237  157.0450   -5.9503 C   0  0  0  0  0  0  0  0  0  0  0  0
   60.7551  162.3820   -6.5700 C   0  0  0  0  0  0  0  0  0  0  0  0
   59.7115  160.7115   -4.9967 C   0  0  0  0  0  0  0  0  0  0  0  0
   56.9143  157.4337   -3.9408 C   0  0  0  0  0  0  0  0  0  0  0  0
   59.1741  160.4134   -3.5979 C   0  0  0  0  0  0  0  0  0  0  0  0
   57.3857  158.8746   -4.0419 C   0  0  0  0  0  0  0  0  0  0  0  0
   60.2309  162.1449   -5.1595 C   0  0  2  0  0  0  0  0  0  0  0  0
   53.3755  157.0988   -4.8067 N   0  0  0  0  0  0  0  0  0  0  0  0
   55.6133  157.2460   -4.5247 N   0  0  0  0  0  0  0  0  0  0  0  0
   58.7187  159.0572   -3.4652 N   0  0  0  0  0  0  0  0  0  0  0  0
   54.1994  157.5204   -2.6558 O   0  0  0  0  0  0  0  0  0  0  0  0
   59.1678  163.0587   -4.9050 O   0  0  0  0  0  0  0  0  0  0  0  0
   53.4798  157.5092   -6.8437 H   0  0  0  0  0  0  0  0  0  0  0  0
   53.6865  155.7985   -6.3802 H   0  0  0  0  0  0  0  0  0  0  0  0
   56.0036  156.1802   -6.2857 H   0  0  0  0  0  0  0  0  0  0  0  0
   55.7632  157.9416   -6.4787 H   0  0  0  0  0  0  0  0  0  0  0  0
   59.9759  162.1896   -7.3158 H   0  0  0  0  0  0  0  0  0  0  0  0
   61.1150  163.4080   -6.6934 H   0  0  0  0  0  0  0  0  0  0  0  0
   61.5793  161.6956   -6.7927 H   0  0  0  0  0  0  0  0  0  0  0  0
   60.5312  160.0088   -5.1931 H   0  0  0  0  0  0  0  0  0  0  0  0
   58.9271  160.5185   -5.7387 H   0  0  0  0  0  0  0  0  0  0  0  0
   56.8554  157.1050   -2.8983 H   0  0  0  0  0  0  0  0  0  0  0  0
   57.6045  156.7739   -4.4757 H   0  0  0  0  0  0  0  0  0  0  0  0
   59.9672  160.5569   -2.8568 H   0  0  0  0  0  0  0  0  0  0  0  0
   58.3432  161.0741   -3.3334 H   0  0  0  0  0  0  0  0  0  0  0  0
   57.4447  159.1811   -5.0908 H   0  0  0  0  0  0  0  0  0  0  0  0
   56.7051  159.5545   -3.5194 H   0  0  0  0  0  0  0  0  0  0  0  0
   61.0295  162.3445   -4.4369 H   0  0  0  0  0  0  0  0  0  0  0  0
   52.3837  157.0869   -4.5910 H   0  0  0  0  0  0  0  0  0  0  0  0
   58.6812  158.7902   -2.4749 H   0  0  0  0  0  0  0  0  0  0  0  0
   59.5410  163.9494   -4.9954 H   0  0  0  0  0  0  0  0  0  0  0  0
  1 10  1  0  0  0  0
  1 11  1  0  0  0  0
  1 13  2  0  0  0  0
  2  3  1  0  0  0  0
  2 10  1  0  0  0  0
  3 11  1  0  0  0  0
  4  9  1  0  0  0  0
  5  7  1  0  0  0  0
  5  9  1  0  0  0  0
  6  8  1  0  0  0  0
  6 11  1  0  0  0  0
  7 12  1  0  0  0  0
  8 12  1  0  0  0  0
  9 14  1  0  0  0  0
  2 15  1  0  0  0  0
  2 16  1  0  0  0  0
  3 17  1  0  0  0  0
  3 18  1  0  0  0  0
  4 19  1  0  0  0  0
  4 20  1  0  0  0  0
  4 21  1  0  0  0  0
  5 22  1  0  0  0  0
  5 23  1  0  0  0  0
  6 24  1  0  0  0  0
  6 25  1  0  0  0  0
  7 26  1  0  0  0  0
  7 27  1  0  0  0  0
  8 28  1  0  0  0  0
  8 29  1  0  0  0  0
  9 30  1  0  0  0  0
 10 31  1  0  0  0  0
 12 32  1  0  0  0  0
 14 33  1  0  0  0  0
M  END
> <FRED Chemgauss4 score>
-5.628154

$$$$
C82882993	P129561702
  -OEChem-05122015083D

 37 37  0     1  0  0  0  0  0999 V2000
   58.0614  155.0787   -6.5452 C   0  0  0  0  0  0  0  0  0  0  0  0
   57.1863  154.6311   -5.3803 C   0  0  0  0  0  0  0  0  0  0  0  0
   56.5540  156.8224   -5.7965 C   0  0  0  0  0  0  0  0  0  0  0  0
   57.6319  156.5160   -6.8325 C   0  0  1  0  0  0  0  0  0  0  0  0
   58.2591  158.8096   -7.0495 C   0  0  0  0  0  0  0  0  0  0  0  0
   59.7840  157.0722   -7.7042 C   0  0  0  0  0  0  0  0  0  0  0  0
   53.6078  155.6375   -5.9916 C   0  0  0  0  0  0  0  0  0  0  0  0
   54.9817  155.0449   -6.3024 C   0  0  0  0  0  0  0  0  0  0  0  0
   53.6994  156.2991   -3.5555 C   0  0  0  0  0  0  0  0  0  0  0  0
   53.1015  155.3295   -4.5754 C   0  0  1  0  0  0  0  0  0  0  0  0
   56.0152  155.5191   -5.3817 N   0  0  1  0  0  0  0  0  0  0  0  0
   51.6198  155.4657   -4.5423 N   0  0  0  0  0  0  0  0  0  0  0  0
   58.7230  157.4491   -6.7670 N   0  0  0  0  0  0  0  0  0  0  0  0
   53.3361  157.6378   -3.8749 O   0  0  0  0  0  0  0  0  0  0  0  0
   59.1229  154.9853   -6.2890 H   0  0  0  0  0  0  0  0  0  0  0  0
   57.8831  154.4551   -7.4298 H   0  0  0  0  0  0  0  0  0  0  0  0
   56.8919  153.5697   -5.4818 H   0  0  0  0  0  0  0  0  0  0  0  0
   57.7569  154.7192   -4.4340 H   0  0  0  0  0  0  0  0  0  0  0  0
   56.9809  157.3651   -4.9259 H   0  0  0  0  0  0  0  0  0  0  0  0
   55.7639  157.4753   -6.2179 H   0  0  0  0  0  0  0  0  0  0  0  0
   57.1950  156.5569   -7.8341 H   0  0  0  0  0  0  0  0  0  0  0  0
   59.0962  159.5105   -6.9971 H   0  0  0  0  0  0  0  0  0  0  0  0
   57.5023  159.1100   -6.3197 H   0  0  0  0  0  0  0  0  0  0  0  0
   57.8205  158.8593   -8.0498 H   0  0  0  0  0  0  0  0  0  0  0  0
   60.6082  157.7879   -7.6463 H   0  0  0  0  0  0  0  0  0  0  0  0
   59.3984  157.0615   -8.7273 H   0  0  0  0  0  0  0  0  0  0  0  0
   60.1652  156.0762   -7.4629 H   0  0  0  0  0  0  0  0  0  0  0  0
   52.8843  155.2544   -6.7227 H   0  0  0  0  0  0  0  0  0  0  0  0
   53.6606  156.7245   -6.1346 H   0  0  0  0  0  0  0  0  0  0  0  0
   54.9452  153.9550   -6.2051 H   0  0  0  0  0  0  0  0  0  0  0  0
   55.3056  155.2796   -7.3206 H   0  0  0  0  0  0  0  0  0  0  0  0
   53.3437  156.0869   -2.5416 H   0  0  0  0  0  0  0  0  0  0  0  0
   54.7930  156.2431   -3.5516 H   0  0  0  0  0  0  0  0  0  0  0  0
   53.3427  154.2991   -4.2908 H   0  0  0  0  0  0  0  0  0  0  0  0
   51.2132  155.6490   -3.6651 H   0  0  0  0  0  0  0  0  0  0  0  0
   51.1315  155.1664   -5.3426 H   0  0  0  0  0  0  0  0  0  0  0  0
   53.7405  158.2044   -3.1990 H   0  0  0  0  0  0  0  0  0  0  0  0
  1  2  1  0  0  0  0
  1  4  1  0  0  0  0
  2 11  1  0  0  0  0
  3  4  1  0  0  0  0
  3 11  1  0  0  0  0
  4 13  1  0  0  0  0
  5 13  1  0  0  0  0
  6 13  1  0  0  0  0
  7  8  1  0  0  0  0
  7 10  1  0  0  0  0
  8 11  1  0  0  0  0
  9 10  1  0  0  0  0
  9 14  1  0  0  0  0
 10 12  1  0  0  0  0
  1 15  1  0  0  0  0
  1 16  1  0  0  0  0
  2 17  1  0  0  0  0
  2 18  1  0  0  0  0
  3 19  1  0  0  0  0
  3 20  1  0  0  0  0
  4 21  1  0  0  0  0
  5 22  1  0  0  0  0
  5 23  1  0  0  0  0
  5 24  1  0  0  0  0
  6 25  1  0  0  0  0
  6 26  1  0  0  0  0
  6 27  1  0  0  0  0
  7 28  1  0  0  0  0
  7 29  1  0  0  0  0
  8 30  1  0  0  0  0
  8 31  1  0  0  0  0
  9 32  1  0  0  0  0
  9 33  1  0  0  0  0
 10 34  1  0  0  0  0
 12 35  1  0  0  0  0
 12 36  1  0  0  0  0
 14 37  1  0  0  0  0
M  END
> <FRED Chemgauss4 score>
-5.627671

$$$$
C13544507	P20855322
  -OEChem-05122015083D

 17 17  0     0  0  0  0  0  0999 V2000
   55.1202  158.1319   -2.8726 C   0  0  0  0  0  0  0  0  0  0  0  0
   54.1960  156.4265   -3.7490 C   0  0  0  0  0  0  0  0  0  0  0  0
   55.3234  156.6603   -4.5005 C   0  0  0  0  0  0  0  0  0  0  0  0
   57.0329  156.3398   -6.3027 C   0  0  0  0  0  0  0  0  0  0  0  0
   53.2387  155.3799   -3.9483 C   0  0  0  0  0  0  0  0  0  0  0  0
   54.0750  157.3462   -2.7375 N   0  0  0  0  0  0  0  0  0  0  0  0
   55.9049  157.7561   -3.9273 N   0  0  0  0  0  0  0  0  0  0  0  0
   52.1419  155.6264   -4.7866 N   0  0  0  0  0  0  0  0  0  0  0  0
   55.8590  156.0287   -5.5871 N   0  0  0  0  0  0  0  0  0  0  0  0
   57.8305  157.2459   -6.1062 O   0  0  0  0  0  0  0  0  0  0  0  0
   53.3410  154.2620   -3.3868 O   0  0  0  0  0  0  0  0  0  0  0  0
   55.3640  158.9803   -2.2493 H   0  0  0  0  0  0  0  0  0  0  0  0
   57.1889  155.6310   -7.1340 H   0  0  0  0  0  0  0  0  0  0  0  0
   56.7584  158.2065   -4.2291 H   0  0  0  0  0  0  0  0  0  0  0  0
   52.0570  156.5359   -5.2273 H   0  0  0  0  0  0  0  0  0  0  0  0
   51.4303  154.9258   -4.9675 H   0  0  0  0  0  0  0  0  0  0  0  0
   55.3628  155.1998   -5.9698 H   0  0  0  0  0  0  0  0  0  0  0  0
  1  6  2  0  0  0  0
  1  7  1  0  0  0  0
  2  3  2  0  0  0  0
  2  5  1  0  0  0  0
  2  6  1  0  0  0  0
  3  7  1  0  0  0  0
  3  9  1  0  0  0  0
  4  9  1  0  0  0  0
  4 10  2  0  0  0  0
  5  8  1  0  0  0  0
  5 11  2  0  0  0  0
  1 12  1  0  0  0  0
  4 13  1  0  0  0  0
  7 14  1  0  0  0  0
  8 15  1  0  0  0  0
  8 16  1  0  0  0  0
  9 17  1  0  0  0  0
M  END
> <FRED Chemgauss4 score>
-5.626700

$$$$
C20974560	P101623439
  -OEChem-05122015083D

 21 22  0     1  0  0  0  0  0999 V2000
   55.9407  154.4374   -6.6149 C   0  0  0  0  0  0  0  0  0  0  0  0
   56.0176  155.8099   -6.4187 C   0  0  0  0  0  0  0  0  0  0  0  0
   55.4900  153.6597   -5.5638 C   0  0  0  0  0  0  0  0  0  0  0  0
   55.6486  156.3544   -5.1907 C   0  0  0  0  0  0  0  0  0  0  0  0
   55.1785  155.4996   -4.1945 C   0  0  0  0  0  0  0  0  0  0  0  0
   54.5121  157.5540   -2.9564 C   0  0  0  0  0  0  0  0  0  0  0  0
   55.6643  158.1936   -3.7167 C   0  0  0  0  0  0  0  0  0  0  0  0
   54.7648  156.0489   -2.8499 C   0  0  1  0  0  0  0  0  0  0  0  0
   55.1133  154.1544   -4.3635 N   0  0  0  0  0  0  0  0  0  0  0  0
   53.5717  155.4022   -2.3027 N   0  0  0  0  0  0  0  0  0  0  0  0
   55.7480  157.7119   -5.0616 O   0  0  0  0  0  0  0  0  0  0  0  0
   56.2281  153.9908   -7.5598 H   0  0  0  0  0  0  0  0  0  0  0  0
   56.3726  156.4493   -7.2224 H   0  0  0  0  0  0  0  0  0  0  0  0
   55.4161  152.5815   -5.6619 H   0  0  0  0  0  0  0  0  0  0  0  0
   54.4177  158.0004   -1.9596 H   0  0  0  0  0  0  0  0  0  0  0  0
   53.5771  157.7476   -3.4994 H   0  0  0  0  0  0  0  0  0  0  0  0
   55.5123  159.2768   -3.7705 H   0  0  0  0  0  0  0  0  0  0  0  0
   56.6247  158.0235   -3.2144 H   0  0  0  0  0  0  0  0  0  0  0  0
   55.5971  155.8759   -2.1584 H   0  0  0  0  0  0  0  0  0  0  0  0
   53.0444  155.8991   -1.6203 H   0  0  0  0  0  0  0  0  0  0  0  0
   53.4491  154.4296   -2.4750 H   0  0  0  0  0  0  0  0  0  0  0  0
  1  2  1  0  0  0  0
  1  3  2  0  0  0  0
  2  4  2  0  0  0  0
  3  9  1  0  0  0  0
  4  5  1  0  0  0  0
  4 11  1  0  0  0  0
  5  8  1  0  0  0  0
  5  9  2  0  0  0  0
  6  7  1  0  0  0  0
  6  8  1  0  0  0  0
  7 11  1  0  0  0  0
  8 10  1  0  0  0  0
  1 12  1  0  0  0  0
  2 13  1  0  0  0  0
  3 14  1  0  0  0  0
  6 15  1  0  0  0  0
  6 16  1  0  0  0  0
  7 17  1  0  0  0  0
  7 18  1  0  0  0  0
  8 19  1  0  0  0  0
 10 20  1  0  0  0  0
 10 21  1  0  0  0  0
M  END
> <FRED Chemgauss4 score>
-5.621372

$$$$
C86525867	P135471773
  -OEChem-05122015083D

 20 20  0     1  0  0  0  0  0999 V2000
   53.8260  155.8435   -6.0068 C   0  0  0  0  0  0  0  0  0  0  0  0
   54.0083  155.8797   -3.9277 C   0  0  0  0  0  0  0  0  0  0  0  0
   55.1287  159.5451   -2.1080 C   0  0  0  0  0  0  0  0  0  0  0  0
   55.2929  157.2024   -2.1940 C   0  0  0  0  0  0  0  0  0  0  0  0
   54.5070  155.9246   -2.4994 C   0  0  1  0  0  0  0  0  0  0  0  0
   54.7546  155.9041   -5.0075 N   0  0  0  0  0  0  0  0  0  0  0  0
   52.6965  155.8079   -4.2796 N   0  0  0  0  0  0  0  0  0  0  0  0
   52.5521  155.7832   -5.6133 N   0  0  0  0  0  0  0  0  0  0  0  0
   53.4110  155.7638   -1.5679 N   0  0  0  0  0  0  0  0  0  0  0  0
   54.4413  158.3301   -2.3692 O   0  0  0  0  0  0  0  0  0  0  0  0
   54.1039  155.8443   -7.0526 H   0  0  0  0  0  0  0  0  0  0  0  0
   54.4479  160.3878   -2.2514 H   0  0  0  0  0  0  0  0  0  0  0  0
   55.9830  159.6340   -2.7839 H   0  0  0  0  0  0  0  0  0  0  0  0
   55.4834  159.5379   -1.0747 H   0  0  0  0  0  0  0  0  0  0  0  0
   55.6414  157.2086   -1.1554 H   0  0  0  0  0  0  0  0  0  0  0  0
   56.1584  157.3191   -2.8553 H   0  0  0  0  0  0  0  0  0  0  0  0
   55.1615  155.0634   -2.3141 H   0  0  0  0  0  0  0  0  0  0  0  0
   51.6469  155.7309   -6.0723 H   0  0  0  0  0  0  0  0  0  0  0  0
   53.5282  156.0862   -0.6252 H   0  0  0  0  0  0  0  0  0  0  0  0
   52.6492  155.1613   -1.8193 H   0  0  0  0  0  0  0  0  0  0  0  0
  1  6  2  0  0  0  0
  1  8  1  0  0  0  0
  2  5  1  0  0  0  0
  2  6  1  0  0  0  0
  2  7  2  0  0  0  0
  3 10  1  0  0  0  0
  4  5  1  0  0  0  0
  4 10  1  0  0  0  0
  5  9  1  0  0  0  0
  7  8  1  0  0  0  0
  1 11  1  0  0  0  0
  3 12  1  0  0  0  0
  3 13  1  0  0  0  0
  3 14  1  0  0  0  0
  4 15  1  0  0  0  0
  4 16  1  0  0  0  0
  5 17  1  0  0  0  0
  8 18  1  0  0  0  0
  9 19  1  0  0  0  0
  9 20  1  0  0  0  0
M  END
> <FRED Chemgauss4 score>
-5.619917

$$$$
C87121137	P136358272
  -OEChem-05122015083D

 36 36  0     1  0  0  0  0  0999 V2000
   54.4194  154.6891   -5.3885 C   0  0  0  0  0  0  0  0  0  0  0  0
   53.8015  155.8831   -6.1062 C   0  0  0  0  0  0  0  0  0  0  0  0
   55.7503  154.2697   -6.0175 C   0  0  0  0  0  0  0  0  0  0  0  0
   56.2075  156.7559   -5.9604 C   0  0  0  0  0  0  0  0  0  0  0  0
   54.7162  157.1216   -6.0712 C   0  0  2  0  0  0  0  0  0  0  0  0
   56.5122  155.4345   -6.6594 C   0  0  1  0  0  0  0  0  0  0  0  0
   55.2139  159.3189   -4.9712 C   0  0  0  0  0  0  0  0  0  0  0  0
   58.3432  153.3867   -7.0801 C   0  0  0  0  0  0  0  0  0  0  0  0
   54.3950  157.3457   -3.5889 C   0  0  0  0  0  0  0  0  0  0  0  0
   54.3232  158.0740   -4.9407 C   0  0  2  0  0  0  0  0  0  0  0  0
   54.0129  158.1757   -2.4764 N   0  0  0  0  0  0  0  0  0  0  0  0
   58.7480  155.2734   -5.3167 O   0  0  0  0  0  0  0  0  0  0  0  0
   58.8387  155.8586   -7.7705 O   0  0  0  0  0  0  0  0  0  0  0  0
   52.9768  158.5001   -5.1703 O   0  0  0  0  0  0  0  0  0  0  0  0
   58.2545  155.1133   -6.6715 S   0  0  0  0  0  0  0  0  0  0  0  0
   54.5763  154.9332   -4.3308 H   0  0  0  0  0  0  0  0  0  0  0  0
   53.7220  153.8416   -5.4182 H   0  0  0  0  0  0  0  0  0  0  0  0
   53.5880  155.6097   -7.1488 H   0  0  0  0  0  0  0  0  0  0  0  0
   52.8340  156.1246   -5.6421 H   0  0  0  0  0  0  0  0  0  0  0  0
   56.3801  153.7934   -5.2448 H   0  0  0  0  0  0  0  0  0  0  0  0
   55.5651  153.4840   -6.7702 H   0  0  0  0  0  0  0  0  0  0  0  0
   56.8160  157.5568   -6.3979 H   0  0  0  0  0  0  0  0  0  0  0  0
   56.4942  156.6933   -4.9025 H   0  0  0  0  0  0  0  0  0  0  0  0
   54.5769  157.6765   -7.0237 H   0  0  0  0  0  0  0  0  0  0  0  0
   56.2223  155.5101   -7.7198 H   0  0  0  0  0  0  0  0  0  0  0  0
   54.9529  160.0193   -4.1701 H   0  0  0  0  0  0  0  0  0  0  0  0
   55.0772  159.8690   -5.9096 H   0  0  0  0  0  0  0  0  0  0  0  0
   56.2727  159.0575   -4.8757 H   0  0  0  0  0  0  0  0  0  0  0  0
   59.3938  153.0937   -7.1111 H   0  0  0  0  0  0  0  0  0  0  0  0
   57.8115  152.8233   -6.3117 H   0  0  0  0  0  0  0  0  0  0  0  0
   57.8760  153.2392   -8.0549 H   0  0  0  0  0  0  0  0  0  0  0  0
   53.7139  156.4878   -3.5742 H   0  0  0  0  0  0  0  0  0  0  0  0
   55.4103  156.9857   -3.3910 H   0  0  0  0  0  0  0  0  0  0  0  0
   54.3658  157.9579   -1.5589 H   0  0  0  0  0  0  0  0  0  0  0  0
   53.2514  158.8249   -2.5886 H   0  0  0  0  0  0  0  0  0  0  0  0
   52.7549  159.0995   -4.4430 H   0  0  0  0  0  0  0  0  0  0  0  0
  1  2  1  0  0  0  0
  1  3  1  0  0  0  0
  2  5  1  0  0  0  0
  3  6  1  0  0  0  0
  4  5  1  0  0  0  0
  4  6  1  0  0  0  0
  5 10  1  0  0  0  0
  6 15  1  0  0  0  0
  7 10  1  0  0  0  0
  8 15  1  0  0  0  0
  9 10  1  0  0  0  0
  9 11  1  0  0  0  0
 10 14  1  0  0  0  0
 12 15  2  0  0  0  0
 13 15  2  0  0  0  0
  1 16  1  0  0  0  0
  1 17  1  0  0  0  0
  2 18  1  0  0  0  0
  2 19  1  0  0  0  0
  3 20  1  0  0  0  0
  3 21  1  0  0  0  0
  4 22  1  0  0  0  0
  4 23  1  0  0  0  0
  5 24  1  0  0  0  0
  6 25  1  0  0  0  0
  7 26  1  0  0  0  0
  7 27  1  0  0  0  0
  7 28  1  0  0  0  0
  8 29  1  0  0  0  0
  8 30  1  0  0  0  0
  8 31  1  0  0  0  0
  9 32  1  0  0  0  0
  9 33  1  0  0  0  0
 11 34  1  0  0  0  0
 11 35  1  0  0  0  0
 14 36  1  0  0  0  0
M  END
> <FRED Chemgauss4 score>
-5.619578

$$$$
C01532676	P04873483
  -OEChem-05122015083D

 23 23  0     1  0  0  0  0  0999 V2000
   54.3161  156.9458   -3.4568 C   0  0  1  0  0  0  0  0  0  0  0  0
   55.5280  156.2548   -4.0846 C   0  0  1  0  0  0  0  0  0  0  0  0
   53.2611  155.9195   -3.0407 C   0  0  1  0  0  0  0  0  0  0  0  0
   55.0739  155.3083   -5.2029 C   0  0  1  0  0  0  0  0  0  0  0  0
   52.9156  154.9868   -4.2005 C   0  0  2  0  0  0  0  0  0  0  0  0
   56.2419  154.4991   -5.7599 C   0  0  0  0  0  0  0  0  0  0  0  0
   54.0988  154.3766   -4.7275 O   0  0  0  0  0  0  0  0  0  0  0  0
   54.7094  157.6918   -2.3080 O   0  0  0  0  0  0  0  0  0  0  0  0
   56.4033  157.2345   -4.6369 O   0  0  0  0  0  0  0  0  0  0  0  0
   53.7594  155.1144   -1.9707 O   0  0  0  0  0  0  0  0  0  0  0  0
   52.1857  155.7019   -5.1916 O   0  0  0  0  0  0  0  0  0  0  0  0
   53.8850  157.6600   -4.1683 H   0  0  0  0  0  0  0  0  0  0  0  0
   56.0843  155.7074   -3.3130 H   0  0  0  0  0  0  0  0  0  0  0  0
   52.3678  156.4372   -2.6743 H   0  0  0  0  0  0  0  0  0  0  0  0
   54.6489  155.8835   -6.0346 H   0  0  0  0  0  0  0  0  0  0  0  0
   52.2793  154.1721   -3.8351 H   0  0  0  0  0  0  0  0  0  0  0  0
   56.6963  153.9097   -4.9647 H   0  0  0  0  0  0  0  0  0  0  0  0
   56.9910  155.1702   -6.1778 H   0  0  0  0  0  0  0  0  0  0  0  0
   55.8881  153.8290   -6.5421 H   0  0  0  0  0  0  0  0  0  0  0  0
   53.9043  158.1031   -1.9575 H   0  0  0  0  0  0  0  0  0  0  0  0
   55.8927  157.7135   -5.3078 H   0  0  0  0  0  0  0  0  0  0  0  0
   53.0546  154.4874   -1.7503 H   0  0  0  0  0  0  0  0  0  0  0  0
   51.3798  156.0284   -4.7613 H   0  0  0  0  0  0  0  0  0  0  0  0
  1  2  1  0  0  0  0
  1  3  1  0  0  0  0
  1  8  1  0  0  0  0
  2  4  1  0  0  0  0
  2  9  1  0  0  0  0
  3  5  1  0  0  0  0
  3 10  1  0  0  0  0
  4  6  1  0  0  0  0
  4  7  1  0  0  0  0
  5  7  1  0  0  0  0
  5 11  1  0  0  0  0
  1 12  1  0  0  0  0
  2 13  1  0  0  0  0
  3 14  1  0  0  0  0
  4 15  1  0  0  0  0
  5 16  1  0  0  0  0
  6 17  1  0  0  0  0
  6 18  1  0  0  0  0
  6 19  1  0  0  0  0
  8 20  1  0  0  0  0
  9 21  1  0  0  0  0
 10 22  1  0  0  0  0
 11 23  1  0  0  0  0
M  END
> <FRED Chemgauss4 score>
-5.614072

$$$$
C86433852	P135331542
  -OEChem-05122015083D

 27 28  0     0  0  0  0  0  0999 V2000
   59.2576  155.9724   -7.4181 C   0  0  0  0  0  0  0  0  0  0  0  0
   57.5561  156.6713   -6.2530 C   0  0  0  0  0  0  0  0  0  0  0  0
   59.8970  154.8538   -8.1273 C   0  0  0  0  0  0  0  0  0  0  0  0
   59.0522  153.6498   -7.6245 C   0  0  0  0  0  0  0  0  0  0  0  0
   57.7077  154.2339   -7.1408 C   0  0  0  0  0  0  0  0  0  0  0  0
   56.2677  156.6626   -5.5450 C   0  0  0  0  0  0  0  0  0  0  0  0
   53.7273  155.4698   -4.4398 C   0  0  0  0  0  0  0  0  0  0  0  0
   54.0238  156.0215   -5.8223 C   0  0  0  0  0  0  0  0  0  0  0  0
   59.5036  157.2244   -7.1340 N   0  0  0  0  0  0  0  0  0  0  0  0
   58.4096  157.6738   -6.3855 N   0  0  0  0  0  0  0  0  0  0  0  0
   58.0610  155.6110   -6.8925 N   0  0  0  0  0  0  0  0  0  0  0  0
   52.3329  155.7962   -4.0633 N   0  0  0  0  0  0  0  0  0  0  0  0
   55.3706  155.7375   -6.1639 O   0  0  0  0  0  0  0  0  0  0  0  0
   59.7929  154.9734   -9.2102 H   0  0  0  0  0  0  0  0  0  0  0  0
   60.9532  154.7352   -7.8731 H   0  0  0  0  0  0  0  0  0  0  0  0
   58.9235  152.8799   -8.3913 H   0  0  0  0  0  0  0  0  0  0  0  0
   59.5668  153.1821   -6.7746 H   0  0  0  0  0  0  0  0  0  0  0  0
   56.9439  154.2179   -7.9232 H   0  0  0  0  0  0  0  0  0  0  0  0
   57.3478  153.7687   -6.2204 H   0  0  0  0  0  0  0  0  0  0  0  0
   56.3717  156.3701   -4.4829 H   0  0  0  0  0  0  0  0  0  0  0  0
   55.7826  157.6570   -5.5476 H   0  0  0  0  0  0  0  0  0  0  0  0
   53.8440  154.3817   -4.4134 H   0  0  0  0  0  0  0  0  0  0  0  0
   54.3950  155.9198   -3.6989 H   0  0  0  0  0  0  0  0  0  0  0  0
   53.8960  157.1085   -5.8274 H   0  0  0  0  0  0  0  0  0  0  0  0
   53.3679  155.5815   -6.5805 H   0  0  0  0  0  0  0  0  0  0  0  0
   52.1275  155.8409   -3.0984 H   0  0  0  0  0  0  0  0  0  0  0  0
   51.6527  155.7492   -4.7777 H   0  0  0  0  0  0  0  0  0  0  0  0
  1  3  1  0  0  0  0
  1  9  2  0  0  0  0
  1 11  1  0  0  0  0
  2  6  1  0  0  0  0
  2 10  2  0  0  0  0
  2 11  1  0  0  0  0
  3  4  1  0  0  0  0
  4  5  1  0  0  0  0
  5 11  1  0  0  0  0
  6 13  1  0  0  0  0
  7  8  1  0  0  0  0
  7 12  1  0  0  0  0
  8 13  1  0  0  0  0
  9 10  1  0  0  0  0
  3 14  1  0  0  0  0
  3 15  1  0  0  0  0
  4 16  1  0  0  0  0
  4 17  1  0  0  0  0
  5 18  1  0  0  0  0
  5 19  1  0  0  0  0
  6 20  1  0  0  0  0
  6 21  1  0  0  0  0
  7 22  1  0  0  0  0
  7 23  1  0  0  0  0
  8 24  1  0  0  0  0
  8 25  1  0  0  0  0
 12 26  1  0  0  0  0
 12 27  1  0  0  0  0
M  END
> <FRED Chemgauss4 score>
-5.605452

$$$$
C04329332	P05730540
  -OEChem-05122015083D

 23 23  0     1  0  0  0  0  0999 V2000
   54.4982  157.3560   -5.4387 C   0  0  2  0  0  0  0  0  0  0  0  0
   54.1724  156.9908   -3.9917 C   0  0  2  0  0  0  0  0  0  0  0  0
   55.1361  156.1759   -6.1598 C   0  0  2  0  0  0  0  0  0  0  0  0
   54.2794  154.9218   -6.0038 C   0  0  1  0  0  0  0  0  0  0  0  0
   53.3906  155.6762   -3.9229 C   0  0  1  0  0  0  0  0  0  0  0  0
   54.9495  153.7081   -6.6328 C   0  0  0  0  0  0  0  0  0  0  0  0
   54.0839  154.6382   -4.6143 O   0  0  0  0  0  0  0  0  0  0  0  0
   55.3880  158.4677   -5.4573 O   0  0  0  0  0  0  0  0  0  0  0  0
   53.3995  158.0362   -3.4027 O   0  0  0  0  0  0  0  0  0  0  0  0
   53.2438  155.3258   -2.5476 O   0  0  0  0  0  0  0  0  0  0  0  0
   56.2004  153.5013   -6.0002 O   0  0  0  0  0  0  0  0  0  0  0  0
   56.3539  155.9354   -5.5900 F   0  0  0  0  0  0  0  0  0  0  0  0
   53.5820  157.6675   -5.9552 H   0  0  0  0  0  0  0  0  0  0  0  0
   55.1043  156.9150   -3.4058 H   0  0  0  0  0  0  0  0  0  0  0  0
   55.3191  156.4141   -7.2126 H   0  0  0  0  0  0  0  0  0  0  0  0
   53.2995  155.0682   -6.4751 H   0  0  0  0  0  0  0  0  0  0  0  0
   52.3832  155.7979   -4.3412 H   0  0  0  0  0  0  0  0  0  0  0  0
   55.1109  153.8786   -7.6985 H   0  0  0  0  0  0  0  0  0  0  0  0
   54.3276  152.8221   -6.4949 H   0  0  0  0  0  0  0  0  0  0  0  0
   55.5667  158.6641   -6.3903 H   0  0  0  0  0  0  0  0  0  0  0  0
   52.5915  158.1118   -3.9326 H   0  0  0  0  0  0  0  0  0  0  0  0
   52.7476  154.4934   -2.5280 H   0  0  0  0  0  0  0  0  0  0  0  0
   56.6058  152.7233   -6.4191 H   0  0  0  0  0  0  0  0  0  0  0  0
  1  2  1  0  0  0  0
  1  3  1  0  0  0  0
  1  8  1  0  0  0  0
  2  5  1  0  0  0  0
  2  9  1  0  0  0  0
  3  4  1  0  0  0  0
  3 12  1  0  0  0  0
  4  6  1  0  0  0  0
  4  7  1  0  0  0  0
  5  7  1  0  0  0  0
  5 10  1  0  0  0  0
  6 11  1  0  0  0  0
  1 13  1  0  0  0  0
  2 14  1  0  0  0  0
  3 15  1  0  0  0  0
  4 16  1  0  0  0  0
  5 17  1  0  0  0  0
  6 18  1  0  0  0  0
  6 19  1  0  0  0  0
  8 20  1  0  0  0  0
  9 21  1  0  0  0  0
 10 22  1  0  0  0  0
 11 23  1  0  0  0  0
M  END
> <FRED Chemgauss4 score>
-5.599479

$$$$
C82841439	P129491441
  -OEChem-05122015083D

 23 23  0     1  0  0  0  0  0999 V2000
   54.8521  154.5682   -5.8974 C   0  0  0  0  0  0  0  0  0  0  0  0
   57.1434  154.7125   -6.5184 C   0  0  0  0  0  0  0  0  0  0  0  0
   56.1514  156.5217   -5.5079 C   0  0  0  0  0  0  0  0  0  0  0  0
   55.9731  153.9727   -6.4650 C   0  0  0  0  0  0  0  0  0  0  0  0
   54.9345  155.8668   -5.4074 C   0  0  0  0  0  0  0  0  0  0  0  0
   55.9177  152.5848   -6.9971 C   0  0  0  0  0  0  0  0  0  0  0  0
   53.1847  155.7403   -3.6001 C   0  0  0  0  0  0  0  0  0  0  0  0
   53.7539  156.5307   -4.7927 C   0  0  2  0  0  0  0  0  0  0  0  0
   57.2619  155.9762   -6.0528 N   0  0  0  0  0  0  0  0  0  0  0  0
   54.1822  155.5957   -2.5638 N   0  0  0  0  0  0  0  0  0  0  0  0
   52.7255  156.6827   -5.7829 O   0  0  0  0  0  0  0  0  0  0  0  0
   53.9144  154.0209   -5.8374 H   0  0  0  0  0  0  0  0  0  0  0  0
   58.0504  154.2999   -6.9500 H   0  0  0  0  0  0  0  0  0  0  0  0
   56.2761  157.5365   -5.1423 H   0  0  0  0  0  0  0  0  0  0  0  0
   55.6300  152.5891   -8.0570 H   0  0  0  0  0  0  0  0  0  0  0  0
   56.8896  152.0798   -6.9058 H   0  0  0  0  0  0  0  0  0  0  0  0
   55.1915  151.9711   -6.4453 H   0  0  0  0  0  0  0  0  0  0  0  0
   52.8690  154.7418   -3.9214 H   0  0  0  0  0  0  0  0  0  0  0  0
   52.3138  156.2503   -3.1737 H   0  0  0  0  0  0  0  0  0  0  0  0
   54.0061  157.5549   -4.4620 H   0  0  0  0  0  0  0  0  0  0  0  0
   55.1377  155.4411   -2.8302 H   0  0  0  0  0  0  0  0  0  0  0  0
   53.8791  155.4489   -1.6179 H   0  0  0  0  0  0  0  0  0  0  0  0
   52.5094  155.7888   -6.0810 H   0  0  0  0  0  0  0  0  0  0  0  0
  1  4  1  0  0  0  0
  1  5  2  0  0  0  0
  2  4  2  0  0  0  0
  2  9  1  0  0  0  0
  3  5  1  0  0  0  0
  3  9  2  0  0  0  0
  4  6  1  0  0  0  0
  5  8  1  0  0  0  0
  7  8  1  0  0  0  0
  7 10  1  0  0  0  0
  8 11  1  0  0  0  0
  1 12  1  0  0  0  0
  2 13  1  0  0  0  0
  3 14  1  0  0  0  0
  6 15  1  0  0  0  0
  6 16  1  0  0  0  0
  6 17  1  0  0  0  0
  7 18  1  0  0  0  0
  7 19  1  0  0  0  0
  8 20  1  0  0  0  0
 10 21  1  0  0  0  0
 10 22  1  0  0  0  0
 11 23  1  0  0  0  0
M  END
> <FRED Chemgauss4 score>
-5.596916

$$$$
C97734229	P155054892
  -OEChem-05122015083D

 43 44  0     1  0  0  0  0  0999 V2000
   55.8277  158.1922   -4.0687 C   0  0  0  0  0  0  0  0  0  0  0  0
   56.4704  158.8033   -2.9978 C   0  0  0  0  0  0  0  0  0  0  0  0
   53.8530  158.0735   -2.7485 C   0  0  0  0  0  0  0  0  0  0  0  0
   54.4941  157.8172   -3.9498 C   0  0  0  0  0  0  0  0  0  0  0  0
   56.1660  154.2569   -6.3231 C   0  0  0  0  0  0  0  0  0  0  0  0
   55.7407  159.0157   -1.8392 C   0  0  0  0  0  0  0  0  0  0  0  0
   57.5328  154.5461   -6.4962 C   0  0  0  0  0  0  0  0  0  0  0  0
   55.9476  153.1493   -7.1054 C   0  0  0  0  0  0  0  0  0  0  0  0
   56.3985  159.6695   -0.6702 C   0  0  0  0  0  0  0  0  0  0  0  0
   58.3096  155.6394   -5.8858 C   0  0  0  0  0  0  0  0  0  0  0  0
   54.7270  152.3602   -7.3575 C   0  0  0  0  0  0  0  0  0  0  0  0
   57.4355  151.7694   -8.5879 C   0  0  0  0  0  0  0  0  0  0  0  0
   55.1641  154.9950   -5.4722 C   0  0  0  0  0  0  0  0  0  0  0  0
   54.6611  156.3284   -6.0498 C   0  0  0  0  0  0  0  0  0  0  0  0
   53.7661  157.1497   -5.0968 C   0  0  2  0  0  0  0  0  0  0  0  0
   54.4440  158.6652   -1.6864 N   0  0  0  0  0  0  0  0  0  0  0  0
   58.1400  153.6910   -7.3233 N   0  0  0  0  0  0  0  0  0  0  0  0
   57.1502  152.8536   -7.6769 N   0  0  0  0  0  0  0  0  0  0  0  0
   52.0339  157.4834   -6.6311 N   0  0  0  0  0  0  0  0  0  0  0  0
   53.0394  158.1449   -5.8588 N   0  0  0  0  0  0  0  0  0  0  0  0
   56.3730  158.0122   -4.9911 H   0  0  0  0  0  0  0  0  0  0  0  0
   57.5105  159.1006   -3.0776 H   0  0  0  0  0  0  0  0  0  0  0  0
   52.8125  157.8032   -2.5971 H   0  0  0  0  0  0  0  0  0  0  0  0
   56.2759  160.7579   -0.7236 H   0  0  0  0  0  0  0  0  0  0  0  0
   55.9697  159.3164    0.2762 H   0  0  0  0  0  0  0  0  0  0  0  0
   57.4715  159.4406   -0.6385 H   0  0  0  0  0  0  0  0  0  0  0  0
   58.7498  155.3281   -4.9233 H   0  0  0  0  0  0  0  0  0  0  0  0
   59.1358  155.9767   -6.5363 H   0  0  0  0  0  0  0  0  0  0  0  0
   57.6903  156.5338   -5.6950 H   0  0  0  0  0  0  0  0  0  0  0  0
   54.1691  152.7552   -8.2226 H   0  0  0  0  0  0  0  0  0  0  0  0
   54.9538  151.2995   -7.5618 H   0  0  0  0  0  0  0  0  0  0  0  0
   54.0447  152.3632   -6.4897 H   0  0  0  0  0  0  0  0  0  0  0  0
   57.2707  152.1321   -9.6059 H   0  0  0  0  0  0  0  0  0  0  0  0
   58.4732  151.4494   -8.4593 H   0  0  0  0  0  0  0  0  0  0  0  0
   56.7716  150.9287   -8.3682 H   0  0  0  0  0  0  0  0  0  0  0  0
   55.6422  155.1916   -4.5033 H   0  0  0  0  0  0  0  0  0  0  0  0
   54.3042  154.3502   -5.2509 H   0  0  0  0  0  0  0  0  0  0  0  0
   54.1688  156.1743   -7.0175 H   0  0  0  0  0  0  0  0  0  0  0  0
   55.5539  156.9311   -6.2699 H   0  0  0  0  0  0  0  0  0  0  0  0
   52.9932  156.4809   -4.6976 H   0  0  0  0  0  0  0  0  0  0  0  0
   52.0446  156.4864   -6.4172 H   0  0  0  0  0  0  0  0  0  0  0  0
   51.1165  157.8203   -6.3418 H   0  0  0  0  0  0  0  0  0  0  0  0
   53.6762  158.6310   -6.4933 H   0  0  0  0  0  0  0  0  0  0  0  0
  1  2  2  0  0  0  0
  1  4  1  0  0  0  0
  2  6  1  0  0  0  0
  3  4  2  0  0  0  0
  3 16  1  0  0  0  0
  4 15  1  0  0  0  0
  5  7  1  0  0  0  0
  5  8  2  0  0  0  0
  5 13  1  0  0  0  0
  6  9  1  0  0  0  0
  6 16  2  0  0  0  0
  7 10  1  0  0  0  0
  7 17  2  0  0  0  0
  8 11  1  0  0  0  0
  8 18  1  0  0  0  0
 12 18  1  0  0  0  0
 13 14  1  0  0  0  0
 14 15  1  0  0  0  0
 15 20  1  0  0  0  0
 17 18  1  0  0  0  0
 19 20  1  0  0  0  0
  1 21  1  0  0  0  0
  2 22  1  0  0  0  0
  3 23  1  0  0  0  0
  9 24  1  0  0  0  0
  9 25  1  0  0  0  0
  9 26  1  0  0  0  0
 10 27  1  0  0  0  0
 10 28  1  0  0  0  0
 10 29  1  0  0  0  0
 11 30  1  0  0  0  0
 11 31  1  0  0  0  0
 11 32  1  0  0  0  0
 12 33  1  0  0  0  0
 12 34  1  0  0  0  0
 12 35  1  0  0  0  0
 13 36  1  0  0  0  0
 13 37  1  0  0  0  0
 14 38  1  0  0  0  0
 14 39  1  0  0  0  0
 15 40  1  0  0  0  0
 19 41  1  0  0  0  0
 19 42  1  0  0  0  0
 20 43  1  0  0  0  0
M  END
> <FRED Chemgauss4 score>
-5.594867

$$$$
C54497698	P82017927
  -OEChem-05122015083D

 29 30  0     1  0  0  0  0  0999 V2000
   53.5711  155.6740   -4.7533 C   0  0  0  0  0  0  0  0  0  0  0  0
   54.3037  155.2023   -6.7775 C   0  0  0  0  0  0  0  0  0  0  0  0
   55.2965  160.2938   -3.3641 C   0  0  0  0  0  0  0  0  0  0  0  0
   54.9427  155.5826   -4.7831 C   0  0  0  0  0  0  0  0  0  0  0  0
   55.1548  158.1442   -3.1026 C   0  0  0  0  0  0  0  0  0  0  0  0
   56.1949  159.2280   -0.2163 C   0  0  0  0  0  0  0  0  0  0  0  0
   55.9175  155.7633   -3.6419 C   0  0  0  0  0  0  0  0  0  0  0  0
   56.7977  159.3292   -1.6069 C   0  0  0  0  0  0  0  0  0  0  0  0
   55.4153  156.7483   -2.5627 C   0  0  2  0  0  0  0  0  0  0  0  0
   55.3925  155.2891   -6.0461 N   0  0  0  0  0  0  0  0  0  0  0  0
   54.4004  159.8507   -4.2168 N   0  0  0  0  0  0  0  0  0  0  0  0
   54.3103  158.4831   -4.0504 N   0  0  0  0  0  0  0  0  0  0  0  0
   53.1761  155.4284   -6.0382 N   0  0  0  0  0  0  0  0  0  0  0  0
   55.7973  159.2533   -2.6421 N   0  0  0  0  0  0  0  0  0  0  0  0
   54.2136  156.2075   -1.9130 N   0  0  0  0  0  0  0  0  0  0  0  0
   52.8622  155.8841   -3.9654 H   0  0  0  0  0  0  0  0  0  0  0  0
   54.2627  154.9816   -7.8348 H   0  0  0  0  0  0  0  0  0  0  0  0
   55.6089  161.3199   -3.2325 H   0  0  0  0  0  0  0  0  0  0  0  0
   55.4721  160.0314   -0.0389 H   0  0  0  0  0  0  0  0  0  0  0  0
   56.9792  159.3007    0.5434 H   0  0  0  0  0  0  0  0  0  0  0  0
   55.6741  158.2745   -0.0794 H   0  0  0  0  0  0  0  0  0  0  0  0
   56.8630  156.1278   -4.0677 H   0  0  0  0  0  0  0  0  0  0  0  0
   56.1553  154.7858   -3.2019 H   0  0  0  0  0  0  0  0  0  0  0  0
   57.5192  158.5216   -1.7749 H   0  0  0  0  0  0  0  0  0  0  0  0
   57.3359  160.2763   -1.7266 H   0  0  0  0  0  0  0  0  0  0  0  0
   56.1791  156.8192   -1.7778 H   0  0  0  0  0  0  0  0  0  0  0  0
   52.2243  155.4152   -6.3796 H   0  0  0  0  0  0  0  0  0  0  0  0
   53.6221  156.8457   -1.4351 H   0  0  0  0  0  0  0  0  0  0  0  0
   54.1529  155.2224   -1.8049 H   0  0  0  0  0  0  0  0  0  0  0  0
  1  4  2  0  0  0  0
  1 13  1  0  0  0  0
  2 10  2  0  0  0  0
  2 13  1  0  0  0  0
  3 11  2  0  0  0  0
  3 14  1  0  0  0  0
  4  7  1  0  0  0  0
  4 10  1  0  0  0  0
  5  9  1  0  0  0  0
  5 12  2  0  0  0  0
  5 14  1  0  0  0  0
  6  8  1  0  0  0  0
  7  9  1  0  0  0  0
  8 14  1  0  0  0  0
  9 15  1  0  0  0  0
 11 12  1  0  0  0  0
  1 16  1  0  0  0  0
  2 17  1  0  0  0  0
  3 18  1  0  0  0  0
  6 19  1  0  0  0  0
  6 20  1  0  0  0  0
  6 21  1  0  0  0  0
  7 22  1  0  0  0  0
  7 23  1  0  0  0  0
  8 24  1  0  0  0  0
  8 25  1  0  0  0  0
  9 26  1  0  0  0  0
 13 27  1  0  0  0  0
 15 28  1  0  0  0  0
 15 29  1  0  0  0  0
M  END
> <FRED Chemgauss4 score>
-5.594570

$$$$
C22062005	P32835722
  -OEChem-05122015083D

 24 24  0     1  0  0  0  0  0999 V2000
   54.6175  156.9866   -3.8098 C   0  0  1  0  0  0  0  0  0  0  0  0
   53.9697  155.8703   -2.9744 C   0  0  2  0  0  0  0  0  0  0  0  0
   53.3833  154.9106   -4.0130 C   0  0  2  0  0  0  0  0  0  0  0  0
   54.4074  154.9384   -5.1677 C   0  0  2  0  0  0  0  0  0  0  0  0
   55.3403  156.1448   -4.8817 C   0  0  1  0  0  0  0  0  0  0  0  0
   57.1514  155.8896   -6.9182 C   0  0  0  0  0  0  0  0  0  0  0  0
   53.6245  157.9179   -4.3480 N   0  0  0  0  0  0  0  0  0  0  0  0
   53.0017  156.3363   -2.0559 O   0  0  0  0  0  0  0  0  0  0  0  0
   52.1102  155.3688   -4.4575 O   0  0  0  0  0  0  0  0  0  0  0  0
   53.7453  154.9999   -6.4197 O   0  0  0  0  0  0  0  0  0  0  0  0
   55.9172  157.0726   -6.3357 S   0  0  0  0  0  0  0  0  0  0  0  0
   55.3196  157.4941   -3.2380 H   0  0  0  0  0  0  0  0  0  0  0  0
   54.7556  155.3321   -2.3469 H   0  0  0  0  0  0  0  0  0  0  0  0
   53.2838  153.9209   -3.6116 H   0  0  0  0  0  0  0  0  0  0  0  0
   54.9930  153.9732   -5.1750 H   0  0  0  0  0  0  0  0  0  0  0  0
   56.2589  155.7618   -4.4002 H   0  0  0  0  0  0  0  0  0  0  0  0
   57.6350  156.2710   -7.8208 H   0  0  0  0  0  0  0  0  0  0  0  0
   56.6712  154.9351   -7.1474 H   0  0  0  0  0  0  0  0  0  0  0  0
   57.9084  155.7327   -6.1461 H   0  0  0  0  0  0  0  0  0  0  0  0
   53.8456  158.4142   -5.1867 H   0  0  0  0  0  0  0  0  0  0  0  0
   52.8565  158.1808   -3.7650 H   0  0  0  0  0  0  0  0  0  0  0  0
   53.4581  156.9502   -1.4592 H   0  0  0  0  0  0  0  0  0  0  0  0
   51.5298  155.4105   -3.6773 H   0  0  0  0  0  0  0  0  0  0  0  0
   54.4378  155.0146   -7.0987 H   0  0  0  0  0  0  0  0  0  0  0  0
  1  2  1  0  0  0  0
  1  5  1  0  0  0  0
  1  7  1  0  0  0  0
  2  3  1  0  0  0  0
  2  8  1  0  0  0  0
  3  4  1  0  0  0  0
  3  9  1  0  0  0  0
  4  5  1  0  0  0  0
  4 10  1  0  0  0  0
  5 11  1  0  0  0  0
  6 11  1  0  0  0  0
  1 12  1  0  0  0  0
  2 13  1  0  0  0  0
  3 14  1  0  0  0  0
  4 15  1  0  0  0  0
  5 16  1  0  0  0  0
  6 17  1  0  0  0  0
  6 18  1  0  0  0  0
  6 19  1  0  0  0  0
  7 20  1  0  0  0  0
  7 21  1  0  0  0  0
  8 22  1  0  0  0  0
  9 23  1  0  0  0  0
 10 24  1  0  0  0  0
M  END
> <FRED Chemgauss4 score>
-5.590659

$$$$
C26895734	P39655131
  -OEChem-05122015083D

 23 23  0     1  0  0  0  0  0999 V2000
   58.5997  154.3098   -7.4837 C   0  0  0  0  0  0  0  0  0  0  0  0
   57.5123  153.9590   -6.6913 C   0  0  0  0  0  0  0  0  0  0  0  0
   58.7808  155.6513   -7.7793 C   0  0  0  0  0  0  0  0  0  0  0  0
   56.9199  156.2595   -6.5770 C   0  0  0  0  0  0  0  0  0  0  0  0
   56.6515  154.9465   -6.2252 C   0  0  0  0  0  0  0  0  0  0  0  0
   54.6342  155.8193   -4.9257 C   0  0  0  0  0  0  0  0  0  0  0  0
   53.4202  155.4559   -4.0770 C   0  0  0  0  0  0  0  0  0  0  0  0
   55.4590  154.5970   -5.3599 C   0  0  2  0  0  0  0  0  0  0  0  0
   57.9661  156.6387   -7.3448 N   0  0  0  0  0  0  0  0  0  0  0  0
   55.8840  153.8411   -4.2012 N   0  0  0  0  0  0  0  0  0  0  0  0
   52.7197  156.6487   -3.7481 O   0  0  0  0  0  0  0  0  0  0  0  0
   59.2840  153.5569   -7.8579 H   0  0  0  0  0  0  0  0  0  0  0  0
   57.3438  152.9149   -6.4420 H   0  0  0  0  0  0  0  0  0  0  0  0
   59.6138  155.9763   -8.3939 H   0  0  0  0  0  0  0  0  0  0  0  0
   56.2834  157.0730   -6.2429 H   0  0  0  0  0  0  0  0  0  0  0  0
   55.2715  156.5024   -4.3472 H   0  0  0  0  0  0  0  0  0  0  0  0
   54.3093  156.4094   -5.7929 H   0  0  0  0  0  0  0  0  0  0  0  0
   52.7357  154.7970   -4.6194 H   0  0  0  0  0  0  0  0  0  0  0  0
   53.7270  154.9664   -3.1473 H   0  0  0  0  0  0  0  0  0  0  0  0
   54.7956  153.9183   -5.9107 H   0  0  0  0  0  0  0  0  0  0  0  0
   56.6539  153.2051   -4.2963 H   0  0  0  0  0  0  0  0  0  0  0  0
   55.2847  153.8136   -3.3972 H   0  0  0  0  0  0  0  0  0  0  0  0
   51.9559  156.3851   -3.2101 H   0  0  0  0  0  0  0  0  0  0  0  0
  1  2  1  0  0  0  0
  1  3  2  0  0  0  0
  2  5  2  0  0  0  0
  3  9  1  0  0  0  0
  4  5  1  0  0  0  0
  4  9  2  0  0  0  0
  5  8  1  0  0  0  0
  6  7  1  0  0  0  0
  6  8  1  0  0  0  0
  7 11  1  0  0  0  0
  8 10  1  0  0  0  0
  1 12  1  0  0  0  0
  2 13  1  0  0  0  0
  3 14  1  0  0  0  0
  4 15  1  0  0  0  0
  6 16  1  0  0  0  0
  6 17  1  0  0  0  0
  7 18  1  0  0  0  0
  7 19  1  0  0  0  0
  8 20  1  0  0  0  0
 10 21  1  0  0  0  0
 10 22  1  0  0  0  0
 11 23  1  0  0  0  0
M  END
> <FRED Chemgauss4 score>
-5.587976

$$$$
C43057664	P118380554
  -OEChem-05122015083D

 46 48  0     1  0  0  0  0  0999 V2000
   57.0117  160.8241   -5.9126 C   0  0  0  0  0  0  0  0  0  0  0  0
   58.3739  161.1714   -5.6664 C   0  0  0  0  0  0  0  0  0  0  0  0
   56.2653  160.7946   -4.7543 C   0  0  0  0  0  0  0  0  0  0  0  0
   58.6004  161.3976   -4.3220 C   0  0  0  0  0  0  0  0  0  0  0  0
   54.8803  160.4921   -4.5899 C   0  0  0  0  0  0  0  0  0  0  0  0
   53.1455  157.5883   -6.7527 C   0  0  0  0  0  0  0  0  0  0  0  0
   59.4559  161.3151   -6.6916 C   0  0  0  0  0  0  0  0  0  0  0  0
   59.9238  161.7548   -3.7212 C   0  0  0  0  0  0  0  0  0  0  0  0
   60.8521  161.3192   -6.0496 C   0  0  0  0  0  0  0  0  0  0  0  0
   60.9021  162.2240   -4.8098 C   0  0  0  0  0  0  0  0  0  0  0  0
   52.4289  154.8755   -4.3051 C   0  0  0  0  0  0  0  0  0  0  0  0
   52.4439  155.5484   -2.9349 C   0  0  0  0  0  0  0  0  0  0  0  0
   54.6705  155.8533   -4.3792 C   0  0  0  0  0  0  0  0  0  0  0  0
   53.3972  155.6540   -5.2019 C   0  0  2  0  0  0  0  0  0  0  0  0
   52.3995  158.9045   -6.8797 C   0  0  0  0  0  0  0  0  0  0  0  0
   52.7178  159.8668   -5.7435 C   0  0  0  0  0  0  0  0  0  0  0  0
   54.1302  160.1732   -5.7433 N   0  0  0  0  0  0  0  0  0  0  0  0
   52.8271  156.9335   -5.5720 N   0  0  0  0  0  0  0  0  0  0  0  0
   54.3286  160.5255   -3.4600 O   0  0  0  0  0  0  0  0  0  0  0  0
   53.9277  157.1743   -7.6039 O   0  0  0  0  0  0  0  0  0  0  0  0
   54.8072  155.1079   -1.8531 O   0  0  0  0  0  0  0  0  0  0  0  0
   54.1300  157.4944   -2.3821 O   0  0  0  0  0  0  0  0  0  0  0  0
   57.2018  161.1853   -3.3748 S   0  0  0  0  0  0  0  0  0  0  0  0
   54.1306  156.0788   -2.6878 S   0  0  0  0  0  0  0  0  0  0  0  0
   56.6028  160.6091   -6.8923 H   0  0  0  0  0  0  0  0  0  0  0  0
   59.3936  160.5048   -7.4269 H   0  0  0  0  0  0  0  0  0  0  0  0
   59.3015  162.2584   -7.2298 H   0  0  0  0  0  0  0  0  0  0  0  0
   59.8153  162.5417   -2.9662 H   0  0  0  0  0  0  0  0  0  0  0  0
   60.3367  160.8699   -3.2211 H   0  0  0  0  0  0  0  0  0  0  0  0
   61.1256  160.2969   -5.7576 H   0  0  0  0  0  0  0  0  0  0  0  0
   61.5926  161.6510   -6.7863 H   0  0  0  0  0  0  0  0  0  0  0  0
   60.6550  163.2513   -5.1067 H   0  0  0  0  0  0  0  0  0  0  0  0
   61.9192  162.2452   -4.4022 H   0  0  0  0  0  0  0  0  0  0  0  0
   52.7846  153.8426   -4.2035 H   0  0  0  0  0  0  0  0  0  0  0  0
   51.4138  154.8398   -4.7138 H   0  0  0  0  0  0  0  0  0  0  0  0
   51.8058  156.4368   -2.9229 H   0  0  0  0  0  0  0  0  0  0  0  0
   52.1490  154.8680   -2.1334 H   0  0  0  0  0  0  0  0  0  0  0  0
   55.2867  154.9490   -4.3998 H   0  0  0  0  0  0  0  0  0  0  0  0
   55.2641  156.7164   -4.6900 H   0  0  0  0  0  0  0  0  0  0  0  0
   53.6040  155.1281   -6.1255 H   0  0  0  0  0  0  0  0  0  0  0  0
   52.6633  159.3595   -7.8426 H   0  0  0  0  0  0  0  0  0  0  0  0
   51.3235  158.6912   -6.9013 H   0  0  0  0  0  0  0  0  0  0  0  0
   52.4426  159.4274   -4.7786 H   0  0  0  0  0  0  0  0  0  0  0  0
   52.1462  160.7947   -5.8536 H   0  0  0  0  0  0  0  0  0  0  0  0
   54.5930  160.2178   -6.6453 H   0  0  0  0  0  0  0  0  0  0  0  0
   52.1644  157.3707   -4.9384 H   0  0  0  0  0  0  0  0  0  0  0  0
  1  2  1  0  0  0  0
  1  3  2  0  0  0  0
  2  4  2  0  0  0  0
  2  7  1  0  0  0  0
  3  5  1  0  0  0  0
  3 23  1  0  0  0  0
  4  8  1  0  0  0  0
  4 23  1  0  0  0  0
  5 17  1  0  0  0  0
  5 19  2  0  0  0  0
  6 15  1  0  0  0  0
  6 18  1  0  0  0  0
  6 20  2  0  0  0  0
  7  9  1  0  0  0  0
  8 10  1  0  0  0  0
  9 10  1  0  0  0  0
 11 12  1  0  0  0  0
 11 14  1  0  0  0  0
 12 24  1  0  0  0  0
 13 14  1  0  0  0  0
 13 24  1  0  0  0  0
 14 18  1  0  0  0  0
 15 16  1  0  0  0  0
 16 17  1  0  0  0  0
 21 24  2  0  0  0  0
 22 24  2  0  0  0  0
  1 25  1  0  0  0  0
  7 26  1  0  0  0  0
  7 27  1  0  0  0  0
  8 28  1  0  0  0  0
  8 29  1  0  0  0  0
  9 30  1  0  0  0  0
  9 31  1  0  0  0  0
 10 32  1  0  0  0  0
 10 33  1  0  0  0  0
 11 34  1  0  0  0  0
 11 35  1  0  0  0  0
 12 36  1  0  0  0  0
 12 37  1  0  0  0  0
 13 38  1  0  0  0  0
 13 39  1  0  0  0  0
 14 40  1  0  0  0  0
 15 41  1  0  0  0  0
 15 42  1  0  0  0  0
 16 43  1  0  0  0  0
 16 44  1  0  0  0  0
 17 45  1  0  0  0  0
 18 46  1  0  0  0  0
M  END
> <FRED Chemgauss4 score>
-5.585874

$$$$
C41118879	P62412466
  -OEChem-05122015083D

 31 32  0     0  0  0  0  0  0999 V2000
   54.0988  157.9554   -4.4632 C   0  0  0  0  0  0  0  0  0  0  0  0
   57.2390  162.6760   -3.9707 C   0  0  0  0  0  0  0  0  0  0  0  0
   57.6433  161.5435   -3.3041 C   0  0  0  0  0  0  0  0  0  0  0  0
   56.2113  162.7154   -2.1072 C   0  0  0  0  0  0  0  0  0  0  0  0
   53.8766  157.0524   -5.5427 C   0  0  0  0  0  0  0  0  0  0  0  0
   55.1729  157.5796   -3.6869 C   0  0  0  0  0  0  0  0  0  0  0  0
   54.7896  156.0208   -5.5505 C   0  0  0  0  0  0  0  0  0  0  0  0
   55.7284  158.2448   -2.4802 C   0  0  0  0  0  0  0  0  0  0  0  0
   54.9052  154.8846   -6.4934 C   0  0  0  0  0  0  0  0  0  0  0  0
   57.0651  160.5961   -1.0393 C   0  0  0  0  0  0  0  0  0  0  0  0
   57.7369  159.2982   -1.4742 C   0  0  0  0  0  0  0  0  0  0  0  0
   56.3478  163.4014   -3.2202 N   0  0  0  0  0  0  0  0  0  0  0  0
   56.9769  161.5827   -2.1118 N   0  0  0  0  0  0  0  0  0  0  0  0
   52.8828  157.1974   -6.4507 N   0  0  0  0  0  0  0  0  0  0  0  0
   57.0514  158.6615   -2.5662 N   0  0  0  0  0  0  0  0  0  0  0  0
   55.0193  158.3725   -1.4855 O   0  0  0  0  0  0  0  0  0  0  0  0
   55.9086  156.1434   -4.2600 S   0  0  0  0  0  0  0  0  0  0  0  0
   53.5012  158.8371   -4.2644 H   0  0  0  0  0  0  0  0  0  0  0  0
   57.5444  163.0060   -4.9530 H   0  0  0  0  0  0  0  0  0  0  0  0
   58.3220  160.7437   -3.5655 H   0  0  0  0  0  0  0  0  0  0  0  0
   55.5799  162.9862   -1.2720 H   0  0  0  0  0  0  0  0  0  0  0  0
   55.5611  155.1416   -7.3389 H   0  0  0  0  0  0  0  0  0  0  0  0
   55.3176  153.9878   -6.0044 H   0  0  0  0  0  0  0  0  0  0  0  0
   53.9250  154.5907   -6.9014 H   0  0  0  0  0  0  0  0  0  0  0  0
   56.0405  160.3963   -0.7032 H   0  0  0  0  0  0  0  0  0  0  0  0
   57.5977  161.0564   -0.1985 H   0  0  0  0  0  0  0  0  0  0  0  0
   58.7567  159.5010   -1.8156 H   0  0  0  0  0  0  0  0  0  0  0  0
   57.7868  158.5768   -0.6523 H   0  0  0  0  0  0  0  0  0  0  0  0
   52.1911  157.9559   -6.3842 H   0  0  0  0  0  0  0  0  0  0  0  0
   52.7176  156.5036   -7.1920 H   0  0  0  0  0  0  0  0  0  0  0  0
   57.5911  158.4618   -3.4060 H   0  0  0  0  0  0  0  0  0  0  0  0
  1  5  1  0  0  0  0
  1  6  2  0  0  0  0
  2  3  2  0  0  0  0
  2 12  1  0  0  0  0
  3 13  1  0  0  0  0
  4 12  2  0  0  0  0
  4 13  1  0  0  0  0
  5  7  2  0  0  0  0
  5 14  1  0  0  0  0
  6  8  1  0  0  0  0
  6 17  1  0  0  0  0
  7  9  1  0  0  0  0
  7 17  1  0  0  0  0
  8 15  1  0  0  0  0
  8 16  2  0  0  0  0
 10 11  1  0  0  0  0
 10 13  1  0  0  0  0
 11 15  1  0  0  0  0
  1 18  1  0  0  0  0
  2 19  1  0  0  0  0
  3 20  1  0  0  0  0
  4 21  1  0  0  0  0
  9 22  1  0  0  0  0
  9 23  1  0  0  0  0
  9 24  1  0  0  0  0
 10 25  1  0  0  0  0
 10 26  1  0  0  0  0
 11 27  1  0  0  0  0
 11 28  1  0  0  0  0
 14 29  1  0  0  0  0
 14 30  1  0  0  0  0
 15 31  1  0  0  0  0
M  END
> <FRED Chemgauss4 score>
-5.583565

$$$$
C19258164	P28484676
  -OEChem-05122015083D

 23 23  0     1  0  0  0  0  0999 V2000
   57.4996  155.3354   -6.6620 C   0  0  0  0  0  0  0  0  0  0  0  0
   56.3113  153.4655   -6.1487 C   0  0  0  0  0  0  0  0  0  0  0  0
   58.0394  154.2404   -7.5550 C   0  0  0  0  0  0  0  0  0  0  0  0
   55.7464  155.5573   -4.8913 C   0  0  0  0  0  0  0  0  0  0  0  0
   53.5550  155.7778   -3.6098 C   0  0  0  0  0  0  0  0  0  0  0  0
   54.3441  154.9932   -4.6583 C   0  0  1  0  0  0  0  0  0  0  0  0
   57.2268  153.1279   -7.1485 N   0  0  0  0  0  0  0  0  0  0  0  0
   56.4946  154.8119   -5.8681 N   0  0  0  0  0  0  0  0  0  0  0  0
   54.2486  155.7433   -2.3410 N   0  0  0  0  0  0  0  0  0  0  0  0
   57.9134  156.4870   -6.6709 O   0  0  0  0  0  0  0  0  0  0  0  0
   55.5070  152.7005   -5.6327 O   0  0  0  0  0  0  0  0  0  0  0  0
   53.6180  155.0085   -5.8874 O   0  0  0  0  0  0  0  0  0  0  0  0
   57.8621  154.4605   -8.6089 H   0  0  0  0  0  0  0  0  0  0  0  0
   59.0882  154.0292   -7.3401 H   0  0  0  0  0  0  0  0  0  0  0  0
   55.6965  156.5942   -5.2383 H   0  0  0  0  0  0  0  0  0  0  0  0
   56.3300  155.5284   -3.9655 H   0  0  0  0  0  0  0  0  0  0  0  0
   52.5573  155.3505   -3.4656 H   0  0  0  0  0  0  0  0  0  0  0  0
   53.4442  156.8229   -3.9168 H   0  0  0  0  0  0  0  0  0  0  0  0
   54.4338  153.9450   -4.3479 H   0  0  0  0  0  0  0  0  0  0  0  0
   57.3089  152.1969   -7.5448 H   0  0  0  0  0  0  0  0  0  0  0  0
   54.7097  154.8956   -2.0656 H   0  0  0  0  0  0  0  0  0  0  0  0
   54.0858  156.4821   -1.6814 H   0  0  0  0  0  0  0  0  0  0  0  0
   54.1170  154.4552   -6.5070 H   0  0  0  0  0  0  0  0  0  0  0  0
  1  3  1  0  0  0  0
  1  8  1  0  0  0  0
  1 10  2  0  0  0  0
  2  7  1  0  0  0  0
  2  8  1  0  0  0  0
  2 11  2  0  0  0  0
  3  7  1  0  0  0  0
  4  6  1  0  0  0  0
  4  8  1  0  0  0  0
  5  6  1  0  0  0  0
  5  9  1  0  0  0  0
  6 12  1  0  0  0  0
  3 13  1  0  0  0  0
  3 14  1  0  0  0  0
  4 15  1  0  0  0  0
  4 16  1  0  0  0  0
  5 17  1  0  0  0  0
  5 18  1  0  0  0  0
  6 19  1  0  0  0  0
  7 20  1  0  0  0  0
  9 21  1  0  0  0  0
  9 22  1  0  0  0  0
 12 23  1  0  0  0  0
M  END
> <FRED Chemgauss4 score>
-5.580484

$$$$
C39065565	P59186052
  -OEChem-05122015083D

 20 20  0     1  0  0  0  0  0999 V2000
   55.6533  156.1983   -4.5290 C   0  0  0  0  0  0  0  0  0  0  0  0
   53.5551  155.7379   -3.1856 C   0  0  0  0  0  0  0  0  0  0  0  0
   56.0108  158.5909   -4.0416 C   0  0  0  0  0  0  0  0  0  0  0  0
   54.9257  158.4464   -2.9983 C   0  0  0  0  0  0  0  0  0  0  0  0
   55.0155  156.0784   -3.1460 C   0  0  2  0  0  0  0  0  0  0  0  0
   56.0111  157.4574   -4.9386 N   0  0  0  0  0  0  0  0  0  0  0  0
   51.7620  155.2584   -4.6747 N   0  0  0  0  0  0  0  0  0  0  0  0
   53.0839  155.6009   -4.4772 N   0  0  0  0  0  0  0  0  0  0  0  0
   52.9010  155.5822   -2.1569 O   0  0  0  0  0  0  0  0  0  0  0  0
   55.1224  157.2150   -2.3054 O   0  0  0  0  0  0  0  0  0  0  0  0
   55.8744  154.8627   -5.5172 S   0  0  0  0  0  0  0  0  0  0  0  0
   55.8780  159.4996   -4.6354 H   0  0  0  0  0  0  0  0  0  0  0  0
   56.9992  158.6153   -3.5703 H   0  0  0  0  0  0  0  0  0  0  0  0
   54.9896  159.2597   -2.2689 H   0  0  0  0  0  0  0  0  0  0  0  0
   53.9242  158.4720   -3.4426 H   0  0  0  0  0  0  0  0  0  0  0  0
   55.5061  155.2540   -2.6139 H   0  0  0  0  0  0  0  0  0  0  0  0
   56.4299  157.5671   -5.8570 H   0  0  0  0  0  0  0  0  0  0  0  0
   51.4600  155.7249   -5.5289 H   0  0  0  0  0  0  0  0  0  0  0  0
   51.2295  155.6855   -3.9180 H   0  0  0  0  0  0  0  0  0  0  0  0
   53.7012  155.7500   -5.2692 H   0  0  0  0  0  0  0  0  0  0  0  0
  1  5  1  0  0  0  0
  1  6  1  0  0  0  0
  1 11  2  0  0  0  0
  2  5  1  0  0  0  0
  2  8  1  0  0  0  0
  2  9  2  0  0  0  0
  3  4  1  0  0  0  0
  3  6  1  0  0  0  0
  4 10  1  0  0  0  0
  5 10  1  0  0  0  0
  7  8  1  0  0  0  0
  3 12  1  0  0  0  0
  3 13  1  0  0  0  0
  4 14  1  0  0  0  0
  4 15  1  0  0  0  0
  5 16  1  0  0  0  0
  6 17  1  0  0  0  0
  7 18  1  0  0  0  0
  7 19  1  0  0  0  0
  8 20  1  0  0  0  0
M  END
> <FRED Chemgauss4 score>
-5.578794

$$$$
C04097150	P05160868
  -OEChem-05122015083D

 24 24  0     1  0  0  0  0  0999 V2000
   53.8360  155.5057   -5.7911 C   0  0  2  0  0  0  0  0  0  0  0  0
   55.3628  155.4018   -5.7612 C   0  0  1  0  0  0  0  0  0  0  0  0
   53.2630  155.3598   -4.3835 C   0  0  1  0  0  0  0  0  0  0  0  0
   55.9850  156.3466   -4.7261 C   0  0  1  0  0  0  0  0  0  0  0  0
   53.9223  156.3517   -3.4237 C   0  0  1  0  0  0  0  0  0  0  0  0
   56.0418  157.7965   -5.1994 C   0  0  0  0  0  0  0  0  0  0  0  0
   55.3459  156.2281   -3.4458 O   0  0  0  0  0  0  0  0  0  0  0  0
   53.2948  154.4842   -6.6257 O   0  0  0  0  0  0  0  0  0  0  0  0
   55.7441  154.0612   -5.4281 O   0  0  0  0  0  0  0  0  0  0  0  0
   51.8558  155.5806   -4.3969 O   0  0  0  0  0  0  0  0  0  0  0  0
   53.4844  157.6782   -3.7062 O   0  0  0  0  0  0  0  0  0  0  0  0
   56.6191  158.5832   -4.1735 O   0  0  0  0  0  0  0  0  0  0  0  0
   53.5502  156.4765   -6.2361 H   0  0  0  0  0  0  0  0  0  0  0  0
   55.7564  155.6270   -6.7447 H   0  0  0  0  0  0  0  0  0  0  0  0
   53.4264  154.3334   -4.0008 H   0  0  0  0  0  0  0  0  0  0  0  0
   57.0759  156.0315   -4.5831 H   0  0  0  0  0  0  0  0  0  0  0  0
   53.5802  156.1242   -2.3769 H   0  0  0  0  0  0  0  0  0  0  0  0
   55.0353  158.1592   -5.4085 H   0  0  0  0  0  0  0  0  0  0  0  0
   56.6538  157.8709   -6.0983 H   0  0  0  0  0  0  0  0  0  0  0  0
   53.6664  154.6279   -7.5089 H   0  0  0  0  0  0  0  0  0  0  0  0
   56.7143  154.0409   -5.4205 H   0  0  0  0  0  0  0  0  0  0  0  0
   51.5541  155.4748   -3.4823 H   0  0  0  0  0  0  0  0  0  0  0  0
   53.9321  158.2586   -3.0710 H   0  0  0  0  0  0  0  0  0  0  0  0
   56.6447  159.4999   -4.4969 H   0  0  0  0  0  0  0  0  0  0  0  0
  1  2  1  0  0  0  0
  1  3  1  0  0  0  0
  1  8  1  0  0  0  0
  2  4  1  0  0  0  0
  2  9  1  0  0  0  0
  3  5  1  0  0  0  0
  3 10  1  0  0  0  0
  4  6  1  0  0  0  0
  4  7  1  0  0  0  0
  5  7  1  0  0  0  0
  5 11  1  0  0  0  0
  6 12  1  0  0  0  0
  1 13  1  0  0  0  0
  2 14  1  0  0  0  0
  3 15  1  0  0  0  0
  4 16  1  0  0  0  0
  5 17  1  0  0  0  0
  6 18  1  0  0  0  0
  6 19  1  0  0  0  0
  8 20  1  0  0  0  0
  9 21  1  0  0  0  0
 10 22  1  0  0  0  0
 11 23  1  0  0  0  0
 12 24  1  0  0  0  0
M  END
> <FRED Chemgauss4 score>
-5.573728

$$$$
C65150707	P100121503
  -OEChem-05122015083D

 45 46  0     1  0  0  0  0  0999 V2000
   56.8008  157.7327   -3.9424 C   0  0  0  0  0  0  0  0  0  0  0  0
   56.1500  156.8261   -4.8572 C   0  0  0  0  0  0  0  0  0  0  0  0
   56.0948  158.4389   -3.0501 C   0  0  0  0  0  0  0  0  0  0  0  0
   54.8165  156.6781   -4.8251 C   0  0  0  0  0  0  0  0  0  0  0  0
   54.6096  158.2883   -2.9983 C   0  0  0  0  0  0  0  0  0  0  0  0
   56.8398  159.3435   -2.1519 C   0  0  0  0  0  0  0  0  0  0  0  0
   55.7635  162.8143   -3.2300 C   0  0  0  0  0  0  0  0  0  0  0  0
   58.6543  162.4512   -2.0104 C   0  0  0  0  0  0  0  0  0  0  0  0
   58.2266  163.1242   -3.3175 C   0  0  0  0  0  0  0  0  0  0  0  0
   58.8256  160.9486   -2.1997 C   0  0  0  0  0  0  0  0  0  0  0  0
   57.1723  160.9158   -4.0253 C   0  0  0  0  0  0  0  0  0  0  0  0
   57.0182  162.4382   -3.9646 C   0  0  1  0  0  0  0  0  0  0  0  0
   55.0535  166.6904   -2.4010 C   0  0  0  0  0  0  0  0  0  0  0  0
   54.2300  165.4841   -1.9726 C   0  0  0  0  0  0  0  0  0  0  0  0
   53.9572  164.5196   -3.1206 C   0  0  0  0  0  0  0  0  0  0  0  0
   54.0627  155.7635   -5.7368 C   0  0  0  0  0  0  0  0  0  0  0  0
   54.0704  157.3966   -3.9133 N   0  0  0  0  0  0  0  0  0  0  0  0
   57.5901  160.3617   -2.7335 N   0  0  0  0  0  0  0  0  0  0  0  0
   55.1725  163.9776   -3.6849 N   0  0  0  0  0  0  0  0  0  0  0  0
   53.9347  158.9224   -2.1909 O   0  0  0  0  0  0  0  0  0  0  0  0
   56.7577  159.1374   -0.9399 O   0  0  0  0  0  0  0  0  0  0  0  0
   55.3601  162.1012   -2.3187 O   0  0  0  0  0  0  0  0  0  0  0  0
   54.8988  155.1215   -6.5792 F   0  0  0  0  0  0  0  0  0  0  0  0
   53.3855  154.8289   -5.0374 F   0  0  0  0  0  0  0  0  0  0  0  0
   53.1692  156.4452   -6.4840 F   0  0  0  0  0  0  0  0  0  0  0  0
   57.8813  157.8081   -4.0149 H   0  0  0  0  0  0  0  0  0  0  0  0
   56.7701  156.2804   -5.5597 H   0  0  0  0  0  0  0  0  0  0  0  0
   59.5942  162.8921   -1.6603 H   0  0  0  0  0  0  0  0  0  0  0  0
   57.9004  162.6410   -1.2367 H   0  0  0  0  0  0  0  0  0  0  0  0
   58.0148  164.1832   -3.1273 H   0  0  0  0  0  0  0  0  0  0  0  0
   59.0685  163.0896   -4.0207 H   0  0  0  0  0  0  0  0  0  0  0  0
   59.6199  160.7465   -2.9288 H   0  0  0  0  0  0  0  0  0  0  0  0
   59.1398  160.4846   -1.2646 H   0  0  0  0  0  0  0  0  0  0  0  0
   56.2370  160.4529   -4.3581 H   0  0  0  0  0  0  0  0  0  0  0  0
   57.9464  160.6461   -4.7540 H   0  0  0  0  0  0  0  0  0  0  0  0
   56.8959  162.8251   -4.9837 H   0  0  0  0  0  0  0  0  0  0  0  0
   56.0210  166.3802   -2.8083 H   0  0  0  0  0  0  0  0  0  0  0  0
   54.5237  167.2514   -3.1776 H   0  0  0  0  0  0  0  0  0  0  0  0
   55.2341  167.3688   -1.5614 H   0  0  0  0  0  0  0  0  0  0  0  0
   53.2728  165.8377   -1.5723 H   0  0  0  0  0  0  0  0  0  0  0  0
   54.7496  164.9638   -1.1593 H   0  0  0  0  0  0  0  0  0  0  0  0
   53.3641  163.6715   -2.7642 H   0  0  0  0  0  0  0  0  0  0  0  0
   53.4021  165.0087   -3.9272 H   0  0  0  0  0  0  0  0  0  0  0  0
   53.0634  157.2606   -3.9171 H   0  0  0  0  0  0  0  0  0  0  0  0
   55.6131  164.4756   -4.4525 H   0  0  0  0  0  0  0  0  0  0  0  0
  1  2  1  0  0  0  0
  1  3  2  0  0  0  0
  2  4  2  0  0  0  0
  3  5  1  0  0  0  0
  3  6  1  0  0  0  0
  4 16  1  0  0  0  0
  4 17  1  0  0  0  0
  5 17  1  0  0  0  0
  5 20  2  0  0  0  0
  6 18  1  0  0  0  0
  6 21  2  0  0  0  0
  7 12  1  0  0  0  0
  7 19  1  0  0  0  0
  7 22  2  0  0  0  0
  8  9  1  0  0  0  0
  8 10  1  0  0  0  0
  9 12  1  0  0  0  0
 10 18  1  0  0  0  0
 11 12  1  0  0  0  0
 11 18  1  0  0  0  0
 13 14  1  0  0  0  0
 14 15  1  0  0  0  0
 15 19  1  0  0  0  0
 16 23  1  0  0  0  0
 16 24  1  0  0  0  0
 16 25  1  0  0  0  0
  1 26  1  0  0  0  0
  2 27  1  0  0  0  0
  8 28  1  0  0  0  0
  8 29  1  0  0  0  0
  9 30  1  0  0  0  0
  9 31  1  0  0  0  0
 10 32  1  0  0  0  0
 10 33  1  0  0  0  0
 11 34  1  0  0  0  0
 11 35  1  0  0  0  0
 12 36  1  0  0  0  0
 13 37  1  0  0  0  0
 13 38  1  0  0  0  0
 13 39  1  0  0  0  0
 14 40  1  0  0  0  0
 14 41  1  0  0  0  0
 15 42  1  0  0  0  0
 15 43  1  0  0  0  0
 17 44  1  0  0  0  0
 19 45  1  0  0  0  0
M  END
> <FRED Chemgauss4 score>
-5.572974

$$$$
C85085297	P133149947
  -OEChem-05122015083D

 22 22  0     0  0  0  0  0  0999 V2000
   53.5683  156.8372   -5.8822 C   0  0  0  0  0  0  0  0  0  0  0  0
   53.6474  156.2913   -3.4713 C   0  0  0  0  0  0  0  0  0  0  0  0
   55.0687  156.6747   -5.9312 C   0  0  0  0  0  0  0  0  0  0  0  0
   55.1455  156.1452   -3.5904 C   0  0  0  0  0  0  0  0  0  0  0  0
   57.0983  157.0001   -4.6927 C   0  0  0  0  0  0  0  0  0  0  0  0
   57.6569  157.9046   -5.7782 C   0  0  0  0  0  0  0  0  0  0  0  0
   52.9845  156.6163   -4.6445 N   0  0  0  0  0  0  0  0  0  0  0  0
   55.6366  157.0450   -4.6346 N   0  0  0  0  0  0  0  0  0  0  0  0
   57.3098  159.2832   -5.5622 N   0  0  0  0  0  0  0  0  0  0  0  0
   52.9163  157.0911   -6.8947 O   0  0  0  0  0  0  0  0  0  0  0  0
   53.0633  156.0752   -2.4097 O   0  0  0  0  0  0  0  0  0  0  0  0
   55.3041  155.6416   -6.2141 H   0  0  0  0  0  0  0  0  0  0  0  0
   55.4437  157.3468   -6.7120 H   0  0  0  0  0  0  0  0  0  0  0  0
   55.5775  156.4221   -2.6215 H   0  0  0  0  0  0  0  0  0  0  0  0
   55.3824  155.0943   -3.7949 H   0  0  0  0  0  0  0  0  0  0  0  0
   57.4737  157.2835   -3.7043 H   0  0  0  0  0  0  0  0  0  0  0  0
   57.3801  155.9607   -4.8876 H   0  0  0  0  0  0  0  0  0  0  0  0
   58.7496  157.8471   -5.7941 H   0  0  0  0  0  0  0  0  0  0  0  0
   57.2801  157.6214   -6.7663 H   0  0  0  0  0  0  0  0  0  0  0  0
   51.9732  156.7007   -4.5923 H   0  0  0  0  0  0  0  0  0  0  0  0
   57.2855  159.9130   -6.3484 H   0  0  0  0  0  0  0  0  0  0  0  0
   57.2964  159.6449   -4.6217 H   0  0  0  0  0  0  0  0  0  0  0  0
  1  3  1  0  0  0  0
  1  7  1  0  0  0  0
  1 10  2  0  0  0  0
  2  4  1  0  0  0  0
  2  7  1  0  0  0  0
  2 11  2  0  0  0  0
  3  8  1  0  0  0  0
  4  8  1  0  0  0  0
  5  6  1  0  0  0  0
  5  8  1  0  0  0  0
  6  9  1  0  0  0  0
  3 12  1  0  0  0  0
  3 13  1  0  0  0  0
  4 14  1  0  0  0  0
  4 15  1  0  0  0  0
  5 16  1  0  0  0  0
  5 17  1  0  0  0  0
  6 18  1  0  0  0  0
  6 19  1  0  0  0  0
  7 20  1  0  0  0  0
  9 21  1  0  0  0  0
  9 22  1  0  0  0  0
M  END
> <FRED Chemgauss4 score>
-5.567927

$$$$
C22059796	P32818392
  -OEChem-05122015083D

 25 25  0     1  0  0  0  0  0999 V2000
   54.0314  155.2456   -5.4703 C   0  0  1  0  0  0  0  0  0  0  0  0
   54.0758  156.7021   -5.9455 C   0  0  2  0  0  0  0  0  0  0  0  0
   53.1258  155.0700   -4.2473 C   0  0  1  0  0  0  0  0  0  0  0  0
   54.4145  157.6223   -4.7640 C   0  0  1  0  0  0  0  0  0  0  0  0
   53.5352  156.0771   -3.1615 C   0  0  2  0  0  0  0  0  0  0  0  0
   54.3580  159.1018   -5.1249 C   0  0  0  0  0  0  0  0  0  0  0  0
   52.6777  155.9507   -1.9852 N   0  0  0  0  0  0  0  0  0  0  0  0
   53.4943  157.4113   -3.6832 O   0  0  0  0  0  0  0  0  0  0  0  0
   53.6189  154.3986   -6.5359 O   0  0  0  0  0  0  0  0  0  0  0  0
   52.8105  157.0547   -6.5042 O   0  0  0  0  0  0  0  0  0  0  0  0
   51.7687  155.2874   -4.6353 O   0  0  0  0  0  0  0  0  0  0  0  0
   53.0038  159.5168   -5.1216 O   0  0  0  0  0  0  0  0  0  0  0  0
   55.0508  154.9445   -5.1962 H   0  0  0  0  0  0  0  0  0  0  0  0
   54.8164  156.8035   -6.7474 H   0  0  0  0  0  0  0  0  0  0  0  0
   53.1943  154.0382   -3.8824 H   0  0  0  0  0  0  0  0  0  0  0  0
   55.4265  157.3977   -4.4033 H   0  0  0  0  0  0  0  0  0  0  0  0
   54.5624  155.8668   -2.8387 H   0  0  0  0  0  0  0  0  0  0  0  0
   54.7800  159.2605   -6.1179 H   0  0  0  0  0  0  0  0  0  0  0  0
   54.9149  159.6869   -4.3921 H   0  0  0  0  0  0  0  0  0  0  0  0
   52.6027  156.7343   -1.3741 H   0  0  0  0  0  0  0  0  0  0  0  0
   52.3671  155.0393   -1.7281 H   0  0  0  0  0  0  0  0  0  0  0  0
   54.2714  154.5061   -7.2464 H   0  0  0  0  0  0  0  0  0  0  0  0
   52.8847  157.9779   -6.7895 H   0  0  0  0  0  0  0  0  0  0  0  0
   51.2335  155.1672   -3.8366 H   0  0  0  0  0  0  0  0  0  0  0  0
   52.9945  160.4609   -5.3540 H   0  0  0  0  0  0  0  0  0  0  0  0
  1  2  1  0  0  0  0
  1  3  1  0  0  0  0
  1  9  1  0  0  0  0
  2  4  1  0  0  0  0
  2 10  1  0  0  0  0
  3  5  1  0  0  0  0
  3 11  1  0  0  0  0
  4  6  1  0  0  0  0
  4  8  1  0  0  0  0
  5  7  1  0  0  0  0
  5  8  1  0  0  0  0
  6 12  1  0  0  0  0
  1 13  1  0  0  0  0
  2 14  1  0  0  0  0
  3 15  1  0  0  0  0
  4 16  1  0  0  0  0
  5 17  1  0  0  0  0
  6 18  1  0  0  0  0
  6 19  1  0  0  0  0
  7 20  1  0  0  0  0
  7 21  1  0  0  0  0
  9 22  1  0  0  0  0
 10 23  1  0  0  0  0
 11 24  1  0  0  0  0
 12 25  1  0  0  0  0
M  END
> <FRED Chemgauss4 score>
-5.566111

$$$$
C52945694	P79371735
  -OEChem-05122015083D

 19 19  0     0  0  0  0  0  0999 V2000
   54.2195  156.1943   -4.1932 C   0  0  0  0  0  0  0  0  0  0  0  0
   53.7293  155.9551   -6.3234 C   0  0  0  0  0  0  0  0  0  0  0  0
   54.7525  156.3333   -5.4888 C   0  0  0  0  0  0  0  0  0  0  0  0
   56.9805  158.6071   -4.5591 C   0  0  0  0  0  0  0  0  0  0  0  0
   57.0446  157.1295   -4.9074 C   0  0  0  0  0  0  0  0  0  0  0  0
   52.9558  155.7617   -4.1992 N   0  0  0  0  0  0  0  0  0  0  0  0
   52.6862  155.6256   -5.5088 N   0  0  0  0  0  0  0  0  0  0  0  0
   55.7263  158.9683   -3.9546 N   0  0  0  0  0  0  0  0  0  0  0  0
   56.0261  156.7536   -5.8502 N   0  0  0  0  0  0  0  0  0  0  0  0
   54.6961  156.3896   -3.2430 H   0  0  0  0  0  0  0  0  0  0  0  0
   53.6475  155.8903   -7.3993 H   0  0  0  0  0  0  0  0  0  0  0  0
   57.1072  159.2329   -5.4482 H   0  0  0  0  0  0  0  0  0  0  0  0
   57.7672  158.8585   -3.8410 H   0  0  0  0  0  0  0  0  0  0  0  0
   58.0096  156.8895   -5.3643 H   0  0  0  0  0  0  0  0  0  0  0  0
   56.9166  156.5042   -4.0180 H   0  0  0  0  0  0  0  0  0  0  0  0
   51.7667  155.2985   -5.7778 H   0  0  0  0  0  0  0  0  0  0  0  0
   54.8758  158.5574   -4.3052 H   0  0  0  0  0  0  0  0  0  0  0  0
   55.6894  159.7651   -3.3391 H   0  0  0  0  0  0  0  0  0  0  0  0
   56.2456  156.7975   -6.8419 H   0  0  0  0  0  0  0  0  0  0  0  0
  1  3  1  0  0  0  0
  1  6  2  0  0  0  0
  2  3  2  0  0  0  0
  2  7  1  0  0  0  0
  3  9  1  0  0  0  0
  4  5  1  0  0  0  0
  4  8  1  0  0  0  0
  5  9  1  0  0  0  0
  6  7  1  0  0  0  0
  1 10  1  0  0  0  0
  2 11  1  0  0  0  0
  4 12  1  0  0  0  0
  4 13  1  0  0  0  0
  5 14  1  0  0  0  0
  5 15  1  0  0  0  0
  7 16  1  0  0  0  0
  8 17  1  0  0  0  0
  8 18  1  0  0  0  0
  9 19  1  0  0  0  0
M  END
> <FRED Chemgauss4 score>
-5.559299

$$$$
C88870650	P139021098
  -OEChem-05122015083D

 33 35  0     0  0  0  0  0  0999 V2000
   61.6825  162.7838   -5.7762 C   0  0  0  0  0  0  0  0  0  0  0  0
   56.6474  156.3072   -5.2836 C   0  0  0  0  0  0  0  0  0  0  0  0
   55.6963  158.4526   -4.7095 C   0  0  0  0  0  0  0  0  0  0  0  0
   55.5021  155.6712   -4.8046 C   0  0  0  0  0  0  0  0  0  0  0  0
   54.5510  157.8167   -4.2306 C   0  0  0  0  0  0  0  0  0  0  0  0
   61.4942  161.3986   -5.9972 C   0  0  0  0  0  0  0  0  0  0  0  0
   60.4291  163.3117   -5.5704 C   0  0  0  0  0  0  0  0  0  0  0  0
   56.7446  157.6979   -5.2360 C   0  0  0  0  0  0  0  0  0  0  0  0
   54.4539  156.4260   -4.2782 C   0  0  0  0  0  0  0  0  0  0  0  0
   59.4790  159.8688   -6.0743 C   0  0  0  0  0  0  0  0  0  0  0  0
   60.1392  161.1786   -5.9104 C   0  0  0  0  0  0  0  0  0  0  0  0
   59.9824  158.8698   -6.8810 C   0  0  0  0  0  0  0  0  0  0  0  0
   57.9290  158.3556   -5.7312 C   0  0  0  0  0  0  0  0  0  0  0  0
   61.1982  158.8351   -7.7201 C   0  0  0  0  0  0  0  0  0  0  0  0
   53.2296  155.7460   -3.7657 C   0  0  0  0  0  0  0  0  0  0  0  0
   58.3014  159.5759   -5.4145 N   0  0  0  0  0  0  0  0  0  0  0  0
   52.6065  156.4761   -2.6910 N   0  0  0  0  0  0  0  0  0  0  0  0
   59.4828  162.3397   -5.6505 O   0  0  0  0  0  0  0  0  0  0  0  0
   58.9485  157.5030   -6.8169 S   0  0  0  0  0  0  0  0  0  0  0  0
   62.6151  163.3292   -5.7677 H   0  0  0  0  0  0  0  0  0  0  0  0
   57.4561  155.7049   -5.6908 H   0  0  0  0  0  0  0  0  0  0  0  0
   55.7569  159.5375   -4.6658 H   0  0  0  0  0  0  0  0  0  0  0  0
   55.4351  154.5873   -4.8453 H   0  0  0  0  0  0  0  0  0  0  0  0
   53.7393  158.4130   -3.8222 H   0  0  0  0  0  0  0  0  0  0  0  0
   62.2587  160.6597   -6.1938 H   0  0  0  0  0  0  0  0  0  0  0  0
   60.0611  164.3062   -5.3655 H   0  0  0  0  0  0  0  0  0  0  0  0
   62.0613  158.4553   -7.1505 H   0  0  0  0  0  0  0  0  0  0  0  0
   61.0695  158.1906   -8.6057 H   0  0  0  0  0  0  0  0  0  0  0  0
   61.4621  159.8345   -8.1048 H   0  0  0  0  0  0  0  0  0  0  0  0
   52.4805  155.6264   -4.5610 H   0  0  0  0  0  0  0  0  0  0  0  0
   53.4556  154.7388   -3.3892 H   0  0  0  0  0  0  0  0  0  0  0  0
   52.0464  155.9761   -2.0211 H   0  0  0  0  0  0  0  0  0  0  0  0
   52.5695  157.4805   -2.7400 H   0  0  0  0  0  0  0  0  0  0  0  0
  1  6  1  0  0  0  0
  1  7  2  0  0  0  0
  2  4  2  0  0  0  0
  2  8  1  0  0  0  0
  3  5  1  0  0  0  0
  3  8  2  0  0  0  0
  4  9  1  0  0  0  0
  5  9  2  0  0  0  0
  6 11  2  0  0  0  0
  7 18  1  0  0  0  0
  8 13  1  0  0  0  0
  9 15  1  0  0  0  0
 10 11  1  0  0  0  0
 10 12  2  0  0  0  0
 10 16  1  0  0  0  0
 11 18  1  0  0  0  0
 12 14  1  0  0  0  0
 12 19  1  0  0  0  0
 13 16  2  0  0  0  0
 13 19  1  0  0  0  0
 15 17  1  0  0  0  0
  1 20  1  0  0  0  0
  2 21  1  0  0  0  0
  3 22  1  0  0  0  0
  4 23  1  0  0  0  0
  5 24  1  0  0  0  0
  6 25  1  0  0  0  0
  7 26  1  0  0  0  0
 14 27  1  0  0  0  0
 14 28  1  0  0  0  0
 14 29  1  0  0  0  0
 15 30  1  0  0  0  0
 15 31  1  0  0  0  0
 17 32  1  0  0  0  0
 17 33  1  0  0  0  0
M  END
> <FRED Chemgauss4 score>
-5.556911

$$$$
C36877036	P54824324
  -OEChem-05122015083D

 30 31  0     1  0  0  0  0  0999 V2000
   59.3540  154.3818   -7.6795 C   0  0  0  0  0  0  0  0  0  0  0  0
   58.4146  155.1528   -6.9540 C   0  0  0  0  0  0  0  0  0  0  0  0
   54.7499  154.4446   -6.6662 C   0  0  0  0  0  0  0  0  0  0  0  0
   58.7045  153.2220   -8.0329 C   0  0  0  0  0  0  0  0  0  0  0  0
   56.0089  154.8215   -6.2621 C   0  0  0  0  0  0  0  0  0  0  0  0
   57.2580  154.4093   -6.9161 C   0  0  0  0  0  0  0  0  0  0  0  0
   54.6696  155.7611   -4.9007 C   0  0  0  0  0  0  0  0  0  0  0  0
   55.7319  158.4258   -3.3179 C   0  0  0  0  0  0  0  0  0  0  0  0
   54.2365  158.5901   -5.3083 C   0  0  0  0  0  0  0  0  0  0  0  0
   54.0416  156.5668   -3.7774 C   0  0  1  0  0  0  0  0  0  0  0  0
   54.3384  158.0858   -3.8618 C   0  0  0  0  0  0  0  0  0  0  0  0
   55.9521  155.6406   -5.1625 N   0  0  0  0  0  0  0  0  0  0  0  0
   53.9024  155.0540   -5.7843 N   0  0  0  0  0  0  0  0  0  0  0  0
   52.6199  156.2963   -3.7854 N   0  0  0  0  0  0  0  0  0  0  0  0
   57.4264  153.2309   -7.5716 O   0  0  0  0  0  0  0  0  0  0  0  0
   60.3764  154.6393   -7.9154 H   0  0  0  0  0  0  0  0  0  0  0  0
   58.5709  156.1295   -6.5173 H   0  0  0  0  0  0  0  0  0  0  0  0
   54.3851  153.8222   -7.4712 H   0  0  0  0  0  0  0  0  0  0  0  0
   58.9964  152.3396   -8.5832 H   0  0  0  0  0  0  0  0  0  0  0  0
   56.5137  157.8967   -3.8736 H   0  0  0  0  0  0  0  0  0  0  0  0
   55.9287  159.5003   -3.3998 H   0  0  0  0  0  0  0  0  0  0  0  0
   55.8262  158.1611   -2.2603 H   0  0  0  0  0  0  0  0  0  0  0  0
   54.9514  158.0750   -5.9590 H   0  0  0  0  0  0  0  0  0  0  0  0
   54.4456  159.6641   -5.3605 H   0  0  0  0  0  0  0  0  0  0  0  0
   53.2322  158.4351   -5.7150 H   0  0  0  0  0  0  0  0  0  0  0  0
   54.4009  156.1940   -2.8092 H   0  0  0  0  0  0  0  0  0  0  0  0
   53.5989  158.6414   -3.2703 H   0  0  0  0  0  0  0  0  0  0  0  0
   52.8928  154.9927   -5.7876 H   0  0  0  0  0  0  0  0  0  0  0  0
   52.0027  156.9476   -3.3369 H   0  0  0  0  0  0  0  0  0  0  0  0
   52.3047  155.3819   -4.0517 H   0  0  0  0  0  0  0  0  0  0  0  0
  1  2  1  0  0  0  0
  1  4  2  0  0  0  0
  2  6  2  0  0  0  0
  3  5  2  0  0  0  0
  3 13  1  0  0  0  0
  4 15  1  0  0  0  0
  5  6  1  0  0  0  0
  5 12  1  0  0  0  0
  6 15  1  0  0  0  0
  7 10  1  0  0  0  0
  7 12  2  0  0  0  0
  7 13  1  0  0  0  0
  8 11  1  0  0  0  0
  9 11  1  0  0  0  0
 10 11  1  0  0  0  0
 10 14  1  0  0  0  0
  1 16  1  0  0  0  0
  2 17  1  0  0  0  0
  3 18  1  0  0  0  0
  4 19  1  0  0  0  0
  8 20  1  0  0  0  0
  8 21  1  0  0  0  0
  8 22  1  0  0  0  0
  9 23  1  0  0  0  0
  9 24  1  0  0  0  0
  9 25  1  0  0  0  0
 10 26  1  0  0  0  0
 11 27  1  0  0  0  0
 13 28  1  0  0  0  0
 14 29  1  0  0  0  0
 14 30  1  0  0  0  0
M  END
> <FRED Chemgauss4 score>
-5.554963

$$$$
C33505934	P90697611
  -OEChem-05122015083D

 16 15  0     0  0  0  0  0  0999 V2000
   53.5486  156.0461   -3.1881 C   0  0  0  0  0  0  0  0  0  0  0  0
   55.1695  157.1830   -1.7761 C   0  0  0  0  0  0  0  0  0  0  0  0
   54.3892  158.2294   -3.8103 C   0  0  0  0  0  0  0  0  0  0  0  0
   54.0364  157.3402   -2.6987 N   0  0  0  0  0  0  0  0  0  0  0  0
   53.0691  155.2028   -2.1427 O   0  0  0  0  0  0  0  0  0  0  0  0
   55.6571  158.4077   -1.2349 O   0  0  0  0  0  0  0  0  0  0  0  0
   53.2758  158.5343   -4.6478 O   0  0  0  0  0  0  0  0  0  0  0  0
   52.7056  156.1896   -3.8727 H   0  0  0  0  0  0  0  0  0  0  0  0
   54.3236  155.4963   -3.7341 H   0  0  0  0  0  0  0  0  0  0  0  0
   56.0010  156.6785   -2.2810 H   0  0  0  0  0  0  0  0  0  0  0  0
   54.8784  156.5352   -0.9409 H   0  0  0  0  0  0  0  0  0  0  0  0
   55.1765  157.8021   -4.4420 H   0  0  0  0  0  0  0  0  0  0  0  0
   54.7556  159.1886   -3.4275 H   0  0  0  0  0  0  0  0  0  0  0  0
   52.7717  154.3791   -2.5648 H   0  0  0  0  0  0  0  0  0  0  0  0
   56.3974  158.1838   -0.6457 H   0  0  0  0  0  0  0  0  0  0  0  0
   53.6074  159.1227   -5.3471 H   0  0  0  0  0  0  0  0  0  0  0  0
  1  4  1  0  0  0  0
  1  5  1  0  0  0  0
  2  4  1  0  0  0  0
  2  6  1  0  0  0  0
  3  4  1  0  0  0  0
  3  7  1  0  0  0  0
  1  8  1  0  0  0  0
  1  9  1  0  0  0  0
  2 10  1  0  0  0  0
  2 11  1  0  0  0  0
  3 12  1  0  0  0  0
  3 13  1  0  0  0  0
  5 14  1  0  0  0  0
  6 15  1  0  0  0  0
  7 16  1  0  0  0  0
M  END
> <FRED Chemgauss4 score>
-5.554056

$$$$
C37996101	P57098702
  -OEChem-05122015083D

 17 17  0     0  0  0  0  0  0999 V2000
   55.5583  154.7150   -6.1820 C   0  0  0  0  0  0  0  0  0  0  0  0
   55.4589  152.7034   -5.6335 C   0  0  0  0  0  0  0  0  0  0  0  0
   53.8045  156.1403   -3.4943 C   0  0  0  0  0  0  0  0  0  0  0  0
   55.2348  155.8980   -3.9181 C   0  0  0  0  0  0  0  0  0  0  0  0
   55.6232  153.4528   -6.6988 N   0  0  0  0  0  0  0  0  0  0  0  0
   55.3042  153.4938   -4.5375 N   0  0  0  0  0  0  0  0  0  0  0  0
   55.3643  154.7939   -4.8638 N   0  0  0  0  0  0  0  0  0  0  0  0
   55.4561  151.3523   -5.6997 N   0  0  0  0  0  0  0  0  0  0  0  0
   53.1585  157.0276   -4.3288 N   0  0  0  0  0  0  0  0  0  0  0  0
   53.2757  155.6135   -2.5196 O   0  0  0  0  0  0  0  0  0  0  0  0
   55.6587  155.5950   -6.8047 H   0  0  0  0  0  0  0  0  0  0  0  0
   55.8469  155.6685   -3.0387 H   0  0  0  0  0  0  0  0  0  0  0  0
   55.6417  156.7991   -4.3908 H   0  0  0  0  0  0  0  0  0  0  0  0
   55.5354  150.8498   -6.5945 H   0  0  0  0  0  0  0  0  0  0  0  0
   55.2803  150.7662   -4.8720 H   0  0  0  0  0  0  0  0  0  0  0  0
   53.6168  157.4525   -5.1287 H   0  0  0  0  0  0  0  0  0  0  0  0
   52.1905  157.2856   -4.1674 H   0  0  0  0  0  0  0  0  0  0  0  0
  1  5  2  0  0  0  0
  1  7  1  0  0  0  0
  2  5  1  0  0  0  0
  2  6  2  0  0  0  0
  2  8  1  0  0  0  0
  3  4  1  0  0  0  0
  3  9  1  0  0  0  0
  3 10  2  0  0  0  0
  4  7  1  0  0  0  0
  6  7  1  0  0  0  0
  1 11  1  0  0  0  0
  4 12  1  0  0  0  0
  4 13  1  0  0  0  0
  8 14  1  0  0  0  0
  8 15  1  0  0  0  0
  9 16  1  0  0  0  0
  9 17  1  0  0  0  0
M  END
> <FRED Chemgauss4 score>
-5.552955

$$$$
C85248143	P133396850
  -OEChem-05122015083D

 29 29  0     1  0  0  0  0  0999 V2000
   57.6416  158.1356   -7.1896 C   0  0  0  0  0  0  0  0  0  0  0  0
   58.6670  156.4937   -7.9081 C   0  0  0  0  0  0  0  0  0  0  0  0
   57.7651  156.6890   -6.6746 C   0  0  0  0  0  0  0  0  0  0  0  0
   58.4750  156.5466   -5.3363 C   0  0  0  0  0  0  0  0  0  0  0  0
   56.4619  155.8997   -6.7297 C   0  0  0  0  0  0  0  0  0  0  0  0
   54.3780  155.4923   -5.6086 C   0  0  0  0  0  0  0  0  0  0  0  0
   54.1740  155.6182   -3.0691 C   0  0  0  0  0  0  0  0  0  0  0  0
   53.5072  155.8848   -4.4151 C   0  0  2  0  0  0  0  0  0  0  0  0
   55.6439  156.2359   -5.6124 N   0  0  0  0  0  0  0  0  0  0  0  0
   58.2890  157.7876   -8.4376 O   0  0  0  0  0  0  0  0  0  0  0  0
   53.2970  156.0409   -2.0293 O   0  0  0  0  0  0  0  0  0  0  0  0
   52.2750  155.1644   -4.4621 O   0  0  0  0  0  0  0  0  0  0  0  0
   56.6247  158.5049   -7.3529 H   0  0  0  0  0  0  0  0  0  0  0  0
   58.2179  158.8940   -6.6495 H   0  0  0  0  0  0  0  0  0  0  0  0
   59.7447  156.4489   -7.7198 H   0  0  0  0  0  0  0  0  0  0  0  0
   58.3862  155.6832   -8.5875 H   0  0  0  0  0  0  0  0  0  0  0  0
   58.5195  155.4963   -5.0456 H   0  0  0  0  0  0  0  0  0  0  0  0
   57.9384  157.1025   -4.5665 H   0  0  0  0  0  0  0  0  0  0  0  0
   59.4914  156.9356   -5.4080 H   0  0  0  0  0  0  0  0  0  0  0  0
   56.6920  154.8421   -6.6985 H   0  0  0  0  0  0  0  0  0  0  0  0
   55.9366  156.1465   -7.6435 H   0  0  0  0  0  0  0  0  0  0  0  0
   54.6097  154.4227   -5.5669 H   0  0  0  0  0  0  0  0  0  0  0  0
   53.8456  155.6841   -6.5460 H   0  0  0  0  0  0  0  0  0  0  0  0
   55.1079  156.1807   -2.9745 H   0  0  0  0  0  0  0  0  0  0  0  0
   54.3701  154.5513   -2.9222 H   0  0  0  0  0  0  0  0  0  0  0  0
   53.2507  156.9484   -4.4882 H   0  0  0  0  0  0  0  0  0  0  0  0
   55.4185  157.2415   -5.6118 H   0  0  0  0  0  0  0  0  0  0  0  0
   53.7511  155.8573   -1.1921 H   0  0  0  0  0  0  0  0  0  0  0  0
   51.8477  155.4080   -5.2969 H   0  0  0  0  0  0  0  0  0  0  0  0
  1  3  1  0  0  0  0
  1 10  1  0  0  0  0
  2  3  1  0  0  0  0
  2 10  1  0  0  0  0
  3  4  1  0  0  0  0
  3  5  1  0  0  0  0
  5  9  1  0  0  0  0
  6  8  1  0  0  0  0
  6  9  1  0  0  0  0
  7  8  1  0  0  0  0
  7 11  1  0  0  0  0
  8 12  1  0  0  0  0
  1 13  1  0  0  0  0
  1 14  1  0  0  0  0
  2 15  1  0  0  0  0
  2 16  1  0  0  0  0
  4 17  1  0  0  0  0
  4 18  1  0  0  0  0
  4 19  1  0  0  0  0
  5 20  1  0  0  0  0
  5 21  1  0  0  0  0
  6 22  1  0  0  0  0
  6 23  1  0  0  0  0
  7 24  1  0  0  0  0
  7 25  1  0  0  0  0
  8 26  1  0  0  0  0
  9 27  1  0  0  0  0
 11 28  1  0  0  0  0
 12 29  1  0  0  0  0
M  END
> <FRED Chemgauss4 score>
-5.551759

$$$$
C84405759	P132074113
  -OEChem-05122015083D

 18 18  0     1  0  0  0  0  0999 V2000
   57.2066  156.8191   -5.6095 C   0  0  0  0  0  0  0  0  0  0  0  0
   53.5708  155.8450   -3.5292 C   0  0  0  0  0  0  0  0  0  0  0  0
   53.5936  156.4912   -5.9501 C   0  0  0  0  0  0  0  0  0  0  0  0
   54.9717  155.3024   -3.6659 C   0  0  0  0  0  0  0  0  0  0  0  0
   55.2393  154.7961   -5.0730 C   0  0  0  0  0  0  0  0  0  0  0  0
   54.9598  155.8702   -6.1107 C   0  0  2  0  0  0  0  0  0  0  0  0
   58.3083  156.6811   -5.2731 N   0  0  0  0  0  0  0  0  0  0  0  0
   53.0282  156.4014   -4.6822 N   0  0  0  0  0  0  0  0  0  0  0  0
   55.9293  156.9813   -6.0008 N   0  0  0  0  0  0  0  0  0  0  0  0
   52.9835  155.8416   -2.4476 O   0  0  0  0  0  0  0  0  0  0  0  0
   53.0430  157.0809   -6.8808 O   0  0  0  0  0  0  0  0  0  0  0  0
   55.6808  156.1028   -3.4235 H   0  0  0  0  0  0  0  0  0  0  0  0
   55.1011  154.4991   -2.9305 H   0  0  0  0  0  0  0  0  0  0  0  0
   56.2900  154.4560   -5.1491 H   0  0  0  0  0  0  0  0  0  0  0  0
   54.6204  153.9021   -5.2699 H   0  0  0  0  0  0  0  0  0  0  0  0
   55.0203  155.4595   -7.1352 H   0  0  0  0  0  0  0  0  0  0  0  0
   52.0944  156.7947   -4.5851 H   0  0  0  0  0  0  0  0  0  0  0  0
   55.6709  157.7831   -6.5926 H   0  0  0  0  0  0  0  0  0  0  0  0
  1  7  3  0  0  0  0
  1  9  1  0  0  0  0
  2  4  1  0  0  0  0
  2  8  1  0  0  0  0
  2 10  2  0  0  0  0
  3  6  1  0  0  0  0
  3  8  1  0  0  0  0
  3 11  2  0  0  0  0
  4  5  1  0  0  0  0
  5  6  1  0  0  0  0
  6  9  1  0  0  0  0
  4 12  1  0  0  0  0
  4 13  1  0  0  0  0
  5 14  1  0  0  0  0
  5 15  1  0  0  0  0
  6 16  1  0  0  0  0
  8 17  1  0  0  0  0
  9 18  1  0  0  0  0
M  END
> <FRED Chemgauss4 score>
-5.550798

$$$$
C97591095	P154659382
  -OEChem-05122015083D

 49 50  0     1  0  0  0  0  0999 V2000
   56.7785  157.6054   -3.5528 C   0  0  0  0  0  0  0  0  0  0  0  0
   54.5575  157.0526   -2.9063 C   0  0  0  0  0  0  0  0  0  0  0  0
   55.4949  158.9925   -2.1090 C   0  0  0  0  0  0  0  0  0  0  0  0
   55.7004  156.7299   -3.6199 C   0  0  0  0  0  0  0  0  0  0  0  0
   56.6819  158.7606   -2.7850 C   0  0  0  0  0  0  0  0  0  0  0  0
   54.1865  151.8871   -8.1639 C   0  0  0  0  0  0  0  0  0  0  0  0
   54.0425  152.9594   -9.2388 C   0  0  0  0  0  0  0  0  0  0  0  0
   55.4284  152.0067   -7.2808 C   0  0  0  0  0  0  0  0  0  0  0  0
   54.0784  154.4017   -8.7346 C   0  0  0  0  0  0  0  0  0  0  0  0
   55.3348  153.1684   -6.2904 C   0  0  0  0  0  0  0  0  0  0  0  0
   55.4765  154.8336   -8.2911 C   0  0  0  0  0  0  0  0  0  0  0  0
   55.8132  154.5331   -6.8191 C   0  0  0  0  0  0  0  0  0  0  0  0
   57.9470  153.4175   -7.4541 C   0  0  0  0  0  0  0  0  0  0  0  0
   57.8808  155.8857   -7.1312 C   0  0  0  0  0  0  0  0  0  0  0  0
   55.7719  155.4673   -4.4450 C   0  0  0  0  0  0  0  0  0  0  0  0
   55.3031  155.6507   -5.8970 C   0  0  2  0  0  0  0  0  0  0  0  0
   54.4264  158.1653   -2.1498 N   0  0  0  0  0  0  0  0  0  0  0  0
   53.3813  156.9148   -5.4784 N   0  0  0  0  0  0  0  0  0  0  0  0
   53.8405  155.6502   -5.9495 N   0  0  0  0  0  0  0  0  0  0  0  0
   57.3181  154.5599   -6.7136 N   0  3  0  0  0  0  0  0  0  0  0  0
   58.1205  159.9697   -2.6669 Br  0  0  0  0  0  0  0  0  0  0  0  0
   57.6901  157.3811   -4.1017 H   0  0  0  0  0  0  0  0  0  0  0  0
   53.6843  156.4076   -2.9206 H   0  0  0  0  0  0  0  0  0  0  0  0
   55.3553  159.8748   -1.4914 H   0  0  0  0  0  0  0  0  0  0  0  0
   53.2871  151.8812   -7.5356 H   0  0  0  0  0  0  0  0  0  0  0  0
   54.2121  150.9107   -8.6642 H   0  0  0  0  0  0  0  0  0  0  0  0
   54.8206  152.8163   -9.9992 H   0  0  0  0  0  0  0  0  0  0  0  0
   53.0860  152.7969   -9.7513 H   0  0  0  0  0  0  0  0  0  0  0  0
   55.5021  151.0790   -6.6988 H   0  0  0  0  0  0  0  0  0  0  0  0
   56.3380  152.0625   -7.8885 H   0  0  0  0  0  0  0  0  0  0  0  0
   53.7804  155.0454   -9.5723 H   0  0  0  0  0  0  0  0  0  0  0  0
   53.3361  154.5599   -7.9446 H   0  0  0  0  0  0  0  0  0  0  0  0
   54.2985  153.2497   -5.9365 H   0  0  0  0  0  0  0  0  0  0  0  0
   55.9210  152.9062   -5.3987 H   0  0  0  0  0  0  0  0  0  0  0  0
   56.2182  154.3755   -8.9593 H   0  0  0  0  0  0  0  0  0  0  0  0
   55.5704  155.9151   -8.4607 H   0  0  0  0  0  0  0  0  0  0  0  0
   57.7149  153.5383   -8.5138 H   0  0  0  0  0  0  0  0  0  0  0  0
   59.0240  153.4594   -7.2807 H   0  0  0  0  0  0  0  0  0  0  0  0
   57.5221  152.4912   -7.0625 H   0  0  0  0  0  0  0  0  0  0  0  0
   57.6481  156.0293   -8.1880 H   0  0  0  0  0  0  0  0  0  0  0  0
   57.4108  156.6565   -6.5175 H   0  0  0  0  0  0  0  0  0  0  0  0
   58.9598  155.8572   -6.9674 H   0  0  0  0  0  0  0  0  0  0  0  0
   56.7944  155.0669   -4.4231 H   0  0  0  0  0  0  0  0  0  0  0  0
   55.1495  154.7112   -3.9465 H   0  0  0  0  0  0  0  0  0  0  0  0
   55.6563  156.6067   -6.2944 H   0  0  0  0  0  0  0  0  0  0  0  0
   54.1796  157.5237   -5.3006 H   0  0  0  0  0  0  0  0  0  0  0  0
   52.8492  157.3637   -6.2228 H   0  0  0  0  0  0  0  0  0  0  0  0
   53.4853  154.9136   -5.3450 H   0  0  0  0  0  0  0  0  0  0  0  0
   57.5427  154.4359   -5.7192 H   0  0  0  0  0  0  0  0  0  0  0  0
  1  4  1  0  0  0  0
  1  5  2  0  0  0  0
  2  4  2  0  0  0  0
  2 17  1  0  0  0  0
  3  5  1  0  0  0  0
  3 17  2  0  0  0  0
  4 15  1  0  0  0  0
  5 21  1  0  0  0  0
  6  7  1  0  0  0  0
  6  8  1  0  0  0  0
  7  9  1  0  0  0  0
  8 10  1  0  0  0  0
  9 11  1  0  0  0  0
 10 12  1  0  0  0  0
 11 12  1  0  0  0  0
 12 16  1  0  0  0  0
 12 20  1  0  0  0  0
 13 20  1  0  0  0  0
 14 20  1  0  0  0  0
 15 16  1  0  0  0  0
 16 19  1  0  0  0  0
 18 19  1  0  0  0  0
  1 22  1  0  0  0  0
  2 23  1  0  0  0  0
  3 24  1  0  0  0  0
  6 25  1  0  0  0  0
  6 26  1  0  0  0  0
  7 27  1  0  0  0  0
  7 28  1  0  0  0  0
  8 29  1  0  0  0  0
  8 30  1  0  0  0  0
  9 31  1  0  0  0  0
  9 32  1  0  0  0  0
 10 33  1  0  0  0  0
 10 34  1  0  0  0  0
 11 35  1  0  0  0  0
 11 36  1  0  0  0  0
 13 37  1  0  0  0  0
 13 38  1  0  0  0  0
 13 39  1  0  0  0  0
 14 40  1  0  0  0  0
 14 41  1  0  0  0  0
 14 42  1  0  0  0  0
 15 43  1  0  0  0  0
 15 44  1  0  0  0  0
 16 45  1  0  0  0  0
 18 46  1  0  0  0  0
 18 47  1  0  0  0  0
 19 48  1  0  0  0  0
 20 49  1  0  0  0  0
M  CHG  1  20   1
M  END
> <FRED Chemgauss4 score>
-5.548609

$$$$
C05157121	P07617928
  -OEChem-05122015083D

 23 23  0     1  0  0  0  0  0999 V2000
   54.4547  156.8107   -2.9977 C   0  0  0  0  0  0  0  0  0  0  0  0
   53.1670  156.0050   -3.0171 C   0  0  1  0  0  0  0  0  0  0  0  0
   53.1856  155.3938   -4.4004 C   0  0  2  0  0  0  0  0  0  0  0  0
   54.6728  155.1174   -4.5974 C   0  0  1  0  0  0  0  0  0  0  0  0
   56.6238  154.7206   -6.1364 C   0  0  0  0  0  0  0  0  0  0  0  0
   55.1431  155.0710   -6.0399 C   0  0  1  0  0  0  0  0  0  0  0  0
   55.3698  156.1673   -3.9022 O   0  0  0  0  0  0  0  0  0  0  0  0
   53.2338  154.9675   -2.0456 O   0  0  0  0  0  0  0  0  0  0  0  0
   52.7203  156.3468   -5.3477 O   0  0  0  0  0  0  0  0  0  0  0  0
   57.3962  155.8809   -5.8469 O   0  0  0  0  0  0  0  0  0  0  0  0
   54.4029  154.0695   -6.7385 O   0  0  0  0  0  0  0  0  0  0  0  0
   54.2934  157.8258   -3.3746 H   0  0  0  0  0  0  0  0  0  0  0  0
   54.9176  156.8638   -2.0080 H   0  0  0  0  0  0  0  0  0  0  0  0
   52.2924  156.6281   -2.8085 H   0  0  0  0  0  0  0  0  0  0  0  0
   52.5879  154.4814   -4.4913 H   0  0  0  0  0  0  0  0  0  0  0  0
   54.9415  154.1800   -4.0990 H   0  0  0  0  0  0  0  0  0  0  0  0
   56.8953  153.9466   -5.4110 H   0  0  0  0  0  0  0  0  0  0  0  0
   56.8826  154.3833   -7.1449 H   0  0  0  0  0  0  0  0  0  0  0  0
   54.9503  156.0275   -6.5409 H   0  0  0  0  0  0  0  0  0  0  0  0
   53.3556  155.3991   -1.1850 H   0  0  0  0  0  0  0  0  0  0  0  0
   51.8152  156.5813   -5.0868 H   0  0  0  0  0  0  0  0  0  0  0  0
   58.3278  155.6192   -5.9181 H   0  0  0  0  0  0  0  0  0  0  0  0
   54.7318  154.0724   -7.6500 H   0  0  0  0  0  0  0  0  0  0  0  0
  1  2  1  0  0  0  0
  1  7  1  0  0  0  0
  2  3  1  0  0  0  0
  2  8  1  0  0  0  0
  3  4  1  0  0  0  0
  3  9  1  0  0  0  0
  4  6  1  0  0  0  0
  4  7  1  0  0  0  0
  5  6  1  0  0  0  0
  5 10  1  0  0  0  0
  6 11  1  0  0  0  0
  1 12  1  0  0  0  0
  1 13  1  0  0  0  0
  2 14  1  0  0  0  0
  3 15  1  0  0  0  0
  4 16  1  0  0  0  0
  5 17  1  0  0  0  0
  5 18  1  0  0  0  0
  6 19  1  0  0  0  0
  8 20  1  0  0  0  0
  9 21  1  0  0  0  0
 10 22  1  0  0  0  0
 11 23  1  0  0  0  0
M  END
> <FRED Chemgauss4 score>
-5.546860

$$$$
C97104505	P153724932
  -OEChem-05122015083D

 36 37  0     1  0  0  0  0  0999 V2000
   55.8110  160.8548   -3.1530 C   0  0  0  0  0  0  0  0  0  0  0  0
   54.9604  159.7498   -3.1835 C   0  0  0  0  0  0  0  0  0  0  0  0
   56.1842  158.7572   -1.3521 C   0  0  0  0  0  0  0  0  0  0  0  0
   56.8483  160.9110   -2.2221 C   0  0  0  0  0  0  0  0  0  0  0  0
   55.1470  158.7010   -2.2830 C   0  0  0  0  0  0  0  0  0  0  0  0
   57.0349  159.8623   -1.3216 C   0  0  0  0  0  0  0  0  0  0  0  0
   61.8036  162.5591   -4.3120 C   0  0  0  0  0  0  0  0  0  0  0  0
   62.3453  163.4286   -5.4247 C   0  0  0  0  0  0  0  0  0  0  0  0
   60.3783  162.3484   -4.7583 C   0  0  1  0  0  0  0  0  0  0  0  0
   60.5141  162.2341   -6.2712 C   0  0  2  0  0  0  0  0  0  0  0  0
   60.7979  160.8400   -6.8203 C   0  0  0  0  0  0  0  0  0  0  0  0
   57.7423  162.1173   -2.2231 C   0  0  0  0  0  0  0  0  0  0  0  0
   54.2865  157.5839   -2.3135 N   0  0  0  0  0  0  0  0  0  0  0  0
   59.1513  161.7593   -2.4658 N   0  0  0  0  0  0  0  0  0  0  0  0
   58.3751  160.6914   -4.6910 O   0  0  0  0  0  0  0  0  0  0  0  0
   60.5775  160.0014   -3.6762 O   0  0  0  0  0  0  0  0  0  0  0  0
   61.6429  163.0635   -6.6215 O   0  0  0  0  0  0  0  0  0  0  0  0
   59.5777  161.0202   -3.9462 S   0  0  0  0  0  0  0  0  0  0  0  0
   58.3085  159.8970   -0.1572 Cl  0  0  0  0  0  0  0  0  0  0  0  0
   55.6578  161.6659   -3.8599 H   0  0  0  0  0  0  0  0  0  0  0  0
   54.1558  159.7169   -3.9138 H   0  0  0  0  0  0  0  0  0  0  0  0
   56.3258  157.9360   -0.6527 H   0  0  0  0  0  0  0  0  0  0  0  0
   62.3848  161.6484   -4.1702 H   0  0  0  0  0  0  0  0  0  0  0  0
   61.8142  163.1227   -3.3750 H   0  0  0  0  0  0  0  0  0  0  0  0
   62.2018  164.4943   -5.2278 H   0  0  0  0  0  0  0  0  0  0  0  0
   63.4109  163.2480   -5.5955 H   0  0  0  0  0  0  0  0  0  0  0  0
   59.7471  163.2624   -4.5031 H   0  0  0  0  0  0  0  0  0  0  0  0
   59.6553  162.6391   -6.7600 H   0  0  0  0  0  0  0  0  0  0  0  0
   61.6746  160.4107   -6.3303 H   0  0  0  0  0  0  0  0  0  0  0  0
   60.9874  160.8872   -7.8949 H   0  0  0  0  0  0  0  0  0  0  0  0
   59.9435  160.1824   -6.6452 H   0  0  0  0  0  0  0  0  0  0  0  0
   57.4352  162.8248   -3.0011 H   0  0  0  0  0  0  0  0  0  0  0  0
   57.6912  162.6451   -1.2650 H   0  0  0  0  0  0  0  0  0  0  0  0
   53.5182  157.5772   -2.9535 H   0  0  0  0  0  0  0  0  0  0  0  0
   54.4017  156.8610   -1.6323 H   0  0  0  0  0  0  0  0  0  0  0  0
   59.8256  162.4268   -2.0694 H   0  0  0  0  0  0  0  0  0  0  0  0
  1  2  2  0  0  0  0
  1  4  1  0  0  0  0
  2  5  1  0  0  0  0
  3  5  2  0  0  0  0
  3  6  1  0  0  0  0
  4  6  2  0  0  0  0
  4 12  1  0  0  0  0
  5 13  1  0  0  0  0
  6 19  1  0  0  0  0
  7  8  1  0  0  0  0
  7  9  1  0  0  0  0
  8 17  1  0  0  0  0
  9 10  1  0  0  0  0
  9 18  1  0  0  0  0
 10 11  1  0  0  0  0
 10 17  1  0  0  0  0
 12 14  1  0  0  0  0
 14 18  1  0  0  0  0
 15 18  2  0  0  0  0
 16 18  2  0  0  0  0
  1 20  1  0  0  0  0
  2 21  1  0  0  0  0
  3 22  1  0  0  0  0
  7 23  1  0  0  0  0
  7 24  1  0  0  0  0
  8 25  1  0  0  0  0
  8 26  1  0  0  0  0
  9 27  1  0  0  0  0
 10 28  1  0  0  0  0
 11 29  1  0  0  0  0
 11 30  1  0  0  0  0
 11 31  1  0  0  0  0
 12 32  1  0  0  0  0
 12 33  1  0  0  0  0
 13 34  1  0  0  0  0
 13 35  1  0  0  0  0
 14 36  1  0  0  0  0
M  END
> <FRED Chemgauss4 score>
-5.542182

$$$$
C87195299	P148450313
  -OEChem-05122015083D

 22 23  0     1  0  0  0  0  0999 V2000
   53.5687  155.9501   -3.5970 C   0  0  0  0  0  0  0  0  0  0  0  0
   53.5326  156.3123   -5.8727 C   0  0  0  0  0  0  0  0  0  0  0  0
   54.9181  155.4958   -4.0800 C   0  0  0  0  0  0  0  0  0  0  0  0
   58.0445  157.2459   -6.9389 C   0  0  0  0  0  0  0  0  0  0  0  0
   58.0940  156.7032   -4.9507 C   0  0  0  0  0  0  0  0  0  0  0  0
   54.9148  155.7923   -5.5753 C   0  0  2  0  0  0  0  0  0  0  0  0
   57.2039  156.2701   -6.1155 C   0  0  0  0  0  0  0  0  0  0  0  0
   52.8442  156.3633   -4.6859 N   0  0  0  0  0  0  0  0  0  0  0  0
   55.8710  156.8295   -5.9335 N   0  0  0  0  0  0  0  0  0  0  0  0
   53.2016  155.9299   -2.4314 O   0  0  0  0  0  0  0  0  0  0  0  0
   53.1210  156.6446   -6.9747 O   0  0  0  0  0  0  0  0  0  0  0  0
   58.6723  157.7731   -5.7419 O   0  0  0  0  0  0  0  0  0  0  0  0
   55.7042  156.0264   -3.5331 H   0  0  0  0  0  0  0  0  0  0  0  0
   55.0231  154.4220   -3.8939 H   0  0  0  0  0  0  0  0  0  0  0  0
   58.7890  156.7765   -7.5908 H   0  0  0  0  0  0  0  0  0  0  0  0
   57.5163  158.0232   -7.5000 H   0  0  0  0  0  0  0  0  0  0  0  0
   57.6018  157.0809   -4.0491 H   0  0  0  0  0  0  0  0  0  0  0  0
   58.8618  155.9772   -4.6630 H   0  0  0  0  0  0  0  0  0  0  0  0
   55.0993  154.8821   -6.1551 H   0  0  0  0  0  0  0  0  0  0  0  0
   57.2462  155.2196   -6.4083 H   0  0  0  0  0  0  0  0  0  0  0  0
   51.8829  156.6793   -4.6200 H   0  0  0  0  0  0  0  0  0  0  0  0
   55.5740  157.2760   -6.8011 H   0  0  0  0  0  0  0  0  0  0  0  0
  1  3  1  0  0  0  0
  1  8  1  0  0  0  0
  1 10  2  0  0  0  0
  2  6  1  0  0  0  0
  2  8  1  0  0  0  0
  2 11  2  0  0  0  0
  3  6  1  0  0  0  0
  4  7  1  0  0  0  0
  4 12  1  0  0  0  0
  5  7  1  0  0  0  0
  5 12  1  0  0  0  0
  6  9  1  0  0  0  0
  7  9  1  0  0  0  0
  3 13  1  0  0  0  0
  3 14  1  0  0  0  0
  4 15  1  0  0  0  0
  4 16  1  0  0  0  0
  5 17  1  0  0  0  0
  5 18  1  0  0  0  0
  6 19  1  0  0  0  0
  7 20  1  0  0  0  0
  8 21  1  0  0  0  0
  9 22  1  0  0  0  0
M  END
> <FRED Chemgauss4 score>
-5.541522

$$$$
C82774730	P129384350
  -OEChem-05122015083D

 25 25  0     0  0  0  0  0  0999 V2000
   57.2663  157.1793   -5.1743 C   0  0  0  0  0  0  0  0  0  0  0  0
   53.9891  156.1450   -3.7167 C   0  0  0  0  0  0  0  0  0  0  0  0
   56.3311  156.8410   -4.0249 C   0  0  0  0  0  0  0  0  0  0  0  0
   56.8537  154.8460   -5.8391 C   0  0  0  0  0  0  0  0  0  0  0  0
   55.3900  155.0336   -5.4888 C   0  0  0  0  0  0  0  0  0  0  0  0
   58.4398  156.2475   -7.1566 C   0  0  0  0  0  0  0  0  0  0  0  0
   52.8598  155.2440   -4.1551 C   0  0  0  0  0  0  0  0  0  0  0  0
   57.4784  156.1375   -6.0722 N   0  0  0  0  0  0  0  0  0  0  0  0
   55.1971  156.0016   -4.4063 N   0  0  0  0  0  0  0  0  0  0  0  0
   52.1436  155.9398   -5.1799 N   0  0  0  0  0  0  0  0  0  0  0  0
   57.8713  158.2518   -5.1903 O   0  0  0  0  0  0  0  0  0  0  0  0
   53.8087  156.9428   -2.7936 O   0  0  0  0  0  0  0  0  0  0  0  0
   56.8977  156.2919   -3.2840 H   0  0  0  0  0  0  0  0  0  0  0  0
   55.9716  157.7700   -3.6089 H   0  0  0  0  0  0  0  0  0  0  0  0
   57.3634  154.3417   -5.0178 H   0  0  0  0  0  0  0  0  0  0  0  0
   56.9667  154.2559   -6.7496 H   0  0  0  0  0  0  0  0  0  0  0  0
   54.8236  155.3408   -6.3878 H   0  0  0  0  0  0  0  0  0  0  0  0
   54.9382  154.0804   -5.1507 H   0  0  0  0  0  0  0  0  0  0  0  0
   59.4212  155.8981   -6.8255 H   0  0  0  0  0  0  0  0  0  0  0  0
   58.5274  157.2883   -7.4799 H   0  0  0  0  0  0  0  0  0  0  0  0
   58.1195  155.6417   -8.0085 H   0  0  0  0  0  0  0  0  0  0  0  0
   52.2284  155.0511   -3.2935 H   0  0  0  0  0  0  0  0  0  0  0  0
   53.2908  154.3214   -4.5310 H   0  0  0  0  0  0  0  0  0  0  0  0
   52.0524  156.9456   -5.1294 H   0  0  0  0  0  0  0  0  0  0  0  0
   51.5672  155.4185   -5.8269 H   0  0  0  0  0  0  0  0  0  0  0  0
  1  3  1  0  0  0  0
  1  8  1  0  0  0  0
  1 11  2  0  0  0  0
  2  7  1  0  0  0  0
  2  9  1  0  0  0  0
  2 12  2  0  0  0  0
  3  9  1  0  0  0  0
  4  5  1  0  0  0  0
  4  8  1  0  0  0  0
  5  9  1  0  0  0  0
  6  8  1  0  0  0  0
  7 10  1  0  0  0  0
  3 13  1  0  0  0  0
  3 14  1  0  0  0  0
  4 15  1  0  0  0  0
  4 16  1  0  0  0  0
  5 17  1  0  0  0  0
  5 18  1  0  0  0  0
  6 19  1  0  0  0  0
  6 20  1  0  0  0  0
  6 21  1  0  0  0  0
  7 22  1  0  0  0  0
  7 23  1  0  0  0  0
 10 24  1  0  0  0  0
 10 25  1  0  0  0  0
M  END
> <FRED Chemgauss4 score>
-5.540109

$$$$
C63065286	P128791481
  -OEChem-05122015083D

 26 26  0     1  0  0  0  0  0999 V2000
   56.7998  159.5272   -2.4359 C   0  0  0  0  0  0  0  0  0  0  0  0
   55.6423  159.1494   -1.7863 C   0  0  0  0  0  0  0  0  0  0  0  0
   57.0620  158.8688   -3.6199 C   0  0  0  0  0  0  0  0  0  0  0  0
   55.1644  157.6346   -3.4123 C   0  0  0  0  0  0  0  0  0  0  0  0
   59.0305  160.1946   -3.7707 C   0  0  0  0  0  0  0  0  0  0  0  0
   53.7086  156.9106   -5.3666 C   0  0  0  0  0  0  0  0  0  0  0  0
   53.0647  156.2927   -3.0077 C   0  0  0  0  0  0  0  0  0  0  0  0
   54.2368  156.5599   -3.9658 C   0  0  2  0  0  0  0  0  0  0  0  0
   54.7985  158.2032   -2.2477 N   0  0  0  0  0  0  0  0  0  0  0  0
   56.2631  157.9136   -4.1393 N   0  0  0  0  0  0  0  0  0  0  0  0
   52.9804  158.2018   -5.3344 N   0  0  0  0  0  0  0  0  0  0  0  0
   53.4889  155.4248   -1.9621 O   0  0  0  0  0  0  0  0  0  0  0  0
   58.1926  159.1868   -4.3247 O   0  0  0  0  0  0  0  0  0  0  0  0
   57.4548  160.2909   -2.0369 H   0  0  0  0  0  0  0  0  0  0  0  0
   55.3528  159.6110   -0.8484 H   0  0  0  0  0  0  0  0  0  0  0  0
   59.8918  160.3532   -4.4242 H   0  0  0  0  0  0  0  0  0  0  0  0
   59.3654  159.8858   -2.7773 H   0  0  0  0  0  0  0  0  0  0  0  0
   58.4621  161.1241   -3.6889 H   0  0  0  0  0  0  0  0  0  0  0  0
   53.0416  156.1404   -5.7675 H   0  0  0  0  0  0  0  0  0  0  0  0
   54.5436  157.0245   -6.0673 H   0  0  0  0  0  0  0  0  0  0  0  0
   52.6750  157.2136   -2.5612 H   0  0  0  0  0  0  0  0  0  0  0  0
   52.2456  155.7944   -3.5375 H   0  0  0  0  0  0  0  0  0  0  0  0
   54.8132  155.6270   -4.0440 H   0  0  0  0  0  0  0  0  0  0  0  0
   52.3977  158.3667   -4.5555 H   0  0  0  0  0  0  0  0  0  0  0  0
   52.9580  158.7229   -6.1720 H   0  0  0  0  0  0  0  0  0  0  0  0
   52.7200  155.2864   -1.3867 H   0  0  0  0  0  0  0  0  0  0  0  0
  1  2  2  0  0  0  0
  1  3  1  0  0  0  0
  2  9  1  0  0  0  0
  3 10  2  0  0  0  0
  3 13  1  0  0  0  0
  4  8  1  0  0  0  0
  4  9  2  0  0  0  0
  4 10  1  0  0  0  0
  5 13  1  0  0  0  0
  6  8  1  0  0  0  0
  6 11  1  0  0  0  0
  7  8  1  0  0  0  0
  7 12  1  0  0  0  0
  1 14  1  0  0  0  0
  2 15  1  0  0  0  0
  5 16  1  0  0  0  0
  5 17  1  0  0  0  0
  5 18  1  0  0  0  0
  6 19  1  0  0  0  0
  6 20  1  0  0  0  0
  7 21  1  0  0  0  0
  7 22  1  0  0  0  0
  8 23  1  0  0  0  0
 11 24  1  0  0  0  0
 11 25  1  0  0  0  0
 12 26  1  0  0  0  0
M  END
> <FRED Chemgauss4 score>
-5.538651

$$$$
C52785703	P79103784
  -OEChem-05122015083D

 23 23  0     1  0  0  0  0  0999 V2000
   53.7349  156.1747   -5.6253 C   0  0  0  0  0  0  0  0  0  0  0  0
   53.9400  156.3750   -3.5577 C   0  0  0  0  0  0  0  0  0  0  0  0
   57.3134  159.7618   -1.0078 C   0  0  0  0  0  0  0  0  0  0  0  0
   55.7468  157.4474   -2.1037 C   0  0  0  0  0  0  0  0  0  0  0  0
   55.6071  158.9374   -2.3977 C   0  0  0  0  0  0  0  0  0  0  0  0
   54.4095  156.6911   -2.1531 C   0  0  1  0  0  0  0  0  0  0  0  0
   54.5736  156.6709   -4.6688 N   0  0  0  0  0  0  0  0  0  0  0  0
   52.7780  155.7319   -3.8508 N   0  0  0  0  0  0  0  0  0  0  0  0
   52.6222  155.5903   -5.1759 N   0  0  0  0  0  0  0  0  0  0  0  0
   53.3974  157.4388   -1.4382 N   0  0  0  0  0  0  0  0  0  0  0  0
   56.8962  159.5353   -2.3471 O   0  0  0  0  0  0  0  0  0  0  0  0
   53.9570  156.2497   -6.6817 H   0  0  0  0  0  0  0  0  0  0  0  0
   58.3051  160.2208   -1.0069 H   0  0  0  0  0  0  0  0  0  0  0  0
   57.3394  158.8120   -0.4677 H   0  0  0  0  0  0  0  0  0  0  0  0
   56.6024  160.4350   -0.5230 H   0  0  0  0  0  0  0  0  0  0  0  0
   56.1957  157.3297   -1.1076 H   0  0  0  0  0  0  0  0  0  0  0  0
   56.4795  157.0069   -2.7928 H   0  0  0  0  0  0  0  0  0  0  0  0
   55.1895  159.1112   -3.3938 H   0  0  0  0  0  0  0  0  0  0  0  0
   54.9698  159.4237   -1.6524 H   0  0  0  0  0  0  0  0  0  0  0  0
   54.5244  155.7572   -1.5886 H   0  0  0  0  0  0  0  0  0  0  0  0
   51.8157  155.1347   -5.5941 H   0  0  0  0  0  0  0  0  0  0  0  0
   53.6727  157.9838   -0.6423 H   0  0  0  0  0  0  0  0  0  0  0  0
   52.4313  157.2393   -1.6213 H   0  0  0  0  0  0  0  0  0  0  0  0
  1  7  2  0  0  0  0
  1  9  1  0  0  0  0
  2  6  1  0  0  0  0
  2  7  1  0  0  0  0
  2  8  2  0  0  0  0
  3 11  1  0  0  0  0
  4  5  1  0  0  0  0
  4  6  1  0  0  0  0
  5 11  1  0  0  0  0
  6 10  1  0  0  0  0
  8  9  1  0  0  0  0
  1 12  1  0  0  0  0
  3 13  1  0  0  0  0
  3 14  1  0  0  0  0
  3 15  1  0  0  0  0
  4 16  1  0  0  0  0
  4 17  1  0  0  0  0
  5 18  1  0  0  0  0
  5 19  1  0  0  0  0
  6 20  1  0  0  0  0
  9 21  1  0  0  0  0
 10 22  1  0  0  0  0
 10 23  1  0  0  0  0
M  END
> <FRED Chemgauss4 score>
-5.537329

$$$$
C86072807	P134778184
  -OEChem-05122015083D

 28 28  0     1  0  0  0  0  0999 V2000
   56.6460  158.3836   -4.4551 C   0  0  0  0  0  0  0  0  0  0  0  0
   54.3556  158.1579   -4.0558 C   0  0  0  0  0  0  0  0  0  0  0  0
   55.3239  160.2111   -4.1731 C   0  0  0  0  0  0  0  0  0  0  0  0
   55.5674  157.5394   -4.2866 C   0  0  0  0  0  0  0  0  0  0  0  0
   55.8026  153.9286   -5.8236 C   0  0  0  0  0  0  0  0  0  0  0  0
   54.2402  155.7699   -6.4837 C   0  0  0  0  0  0  0  0  0  0  0  0
   57.8581  155.3643   -6.3567 C   0  0  0  0  0  0  0  0  0  0  0  0
   55.7052  156.0207   -4.3524 C   0  0  2  0  0  0  0  0  0  0  0  0
   55.5762  155.4501   -5.8014 C   0  0  0  0  0  0  0  0  0  0  0  0
   56.5599  159.7291   -4.4044 N   0  0  0  0  0  0  0  0  0  0  0  0
   54.1970  159.4962   -3.9923 N   0  0  0  0  0  0  0  0  0  0  0  0
   54.7980  155.3604   -3.4026 N   0  0  0  0  0  0  0  0  0  0  0  0
   56.6277  156.0242   -6.5925 O   0  0  0  0  0  0  0  0  0  0  0  0
   57.6426  157.9960   -4.6420 H   0  0  0  0  0  0  0  0  0  0  0  0
   53.4468  157.5824   -3.9098 H   0  0  0  0  0  0  0  0  0  0  0  0
   55.2266  161.2888   -4.1264 H   0  0  0  0  0  0  0  0  0  0  0  0
   56.7453  153.6417   -5.3480 H   0  0  0  0  0  0  0  0  0  0  0  0
   54.9914  153.4056   -5.3032 H   0  0  0  0  0  0  0  0  0  0  0  0
   55.7990  153.5503   -6.8521 H   0  0  0  0  0  0  0  0  0  0  0  0
   54.0311  156.8439   -6.4943 H   0  0  0  0  0  0  0  0  0  0  0  0
   54.2125  155.3908   -7.5101 H   0  0  0  0  0  0  0  0  0  0  0  0
   53.4129  155.2705   -5.9650 H   0  0  0  0  0  0  0  0  0  0  0  0
   58.6399  155.8196   -6.9697 H   0  0  0  0  0  0  0  0  0  0  0  0
   57.7574  154.3045   -6.6038 H   0  0  0  0  0  0  0  0  0  0  0  0
   58.1200  155.4670   -5.3010 H   0  0  0  0  0  0  0  0  0  0  0  0
   56.7219  155.7907   -4.0026 H   0  0  0  0  0  0  0  0  0  0  0  0
   54.5884  155.8392   -2.5590 H   0  0  0  0  0  0  0  0  0  0  0  0
   54.6024  154.3983   -3.5476 H   0  0  0  0  0  0  0  0  0  0  0  0
  1  4  1  0  0  0  0
  1 10  2  0  0  0  0
  2  4  2  0  0  0  0
  2 11  1  0  0  0  0
  3 10  1  0  0  0  0
  3 11  2  0  0  0  0
  4  8  1  0  0  0  0
  5  9  1  0  0  0  0
  6  9  1  0  0  0  0
  7 13  1  0  0  0  0
  8  9  1  0  0  0  0
  8 12  1  0  0  0  0
  9 13  1  0  0  0  0
  1 14  1  0  0  0  0
  2 15  1  0  0  0  0
  3 16  1  0  0  0  0
  5 17  1  0  0  0  0
  5 18  1  0  0  0  0
  5 19  1  0  0  0  0
  6 20  1  0  0  0  0
  6 21  1  0  0  0  0
  6 22  1  0  0  0  0
  7 23  1  0  0  0  0
  7 24  1  0  0  0  0
  7 25  1  0  0  0  0
  8 26  1  0  0  0  0
 12 27  1  0  0  0  0
 12 28  1  0  0  0  0
M  END
> <FRED Chemgauss4 score>
-5.534952

$$$$
C39223588	P59428200
  -OEChem-05122015083D

 15 16  0     1  0  0  0  0  0999 V2000
   55.4887  157.7765   -2.4220 C   0  0  0  0  0  0  0  0  0  0  0  0
   55.3666  156.9837   -4.3341 C   0  0  0  0  0  0  0  0  0  0  0  0
   55.2882  156.7712   -5.7915 C   0  0  0  0  0  0  0  0  0  0  0  0
   53.2642  155.8029   -3.8970 C   0  0  0  0  0  0  0  0  0  0  0  0
   54.6807  156.0190   -3.4558 C   0  0  2  0  0  0  0  0  0  0  0  0
   54.7564  156.7299   -2.1672 N   0  0  0  0  0  0  0  0  0  0  0  0
   55.8838  157.9878   -3.7231 N   0  0  0  0  0  0  0  0  0  0  0  0
   54.1245  156.1367   -6.1666 N   0  0  0  0  0  0  0  0  0  0  0  0
   53.0887  155.8753   -5.2717 N   0  0  0  0  0  0  0  0  0  0  0  0
   56.2058  157.1465   -6.5006 O   0  0  0  0  0  0  0  0  0  0  0  0
   52.3549  155.5500   -3.1098 O   0  0  0  0  0  0  0  0  0  0  0  0
   55.7638  158.4991   -1.6393 H   0  0  0  0  0  0  0  0  0  0  0  0
   55.2203  155.0680   -3.4184 H   0  0  0  0  0  0  0  0  0  0  0  0
   54.0172  155.8479   -7.1335 H   0  0  0  0  0  0  0  0  0  0  0  0
   52.1759  155.7366   -5.6928 H   0  0  0  0  0  0  0  0  0  0  0  0
  1  6  2  0  0  0  0
  1  7  1  0  0  0  0
  2  3  1  0  0  0  0
  2  5  1  0  0  0  0
  2  7  2  0  0  0  0
  3  8  1  0  0  0  0
  3 10  2  0  0  0  0
  4  5  1  0  0  0  0
  4  9  1  0  0  0  0
  4 11  2  0  0  0  0
  5  6  1  0  0  0  0
  8  9  1  0  0  0  0
  1 12  1  0  0  0  0
  5 13  1  0  0  0  0
  8 14  1  0  0  0  0
  9 15  1  0  0  0  0
M  END
> <FRED Chemgauss4 score>
-5.534295

$$$$
C49714843	P74276194
  -OEChem-05122015083D

 24 24  0     1  0  0  0  0  0999 V2000
   51.4622  160.8410   -6.9058 C   0  0  0  0  0  0  0  0  0  0  0  0
   50.6337  159.9572   -7.5561 C   0  0  0  0  0  0  0  0  0  0  0  0
   52.3546  158.9265   -6.6436 C   0  0  0  0  0  0  0  0  0  0  0  0
   55.1565  156.0308   -5.0922 C   0  0  0  0  0  0  0  0  0  0  0  0
   53.2436  157.7772   -6.2653 C   0  0  0  0  0  0  0  0  0  0  0  0
   53.8727  156.1869   -2.9328 C   0  0  0  0  0  0  0  0  0  0  0  0
   53.8013  156.3055   -4.4533 C   0  0  1  0  0  0  0  0  0  0  0  0
   52.5318  160.1932   -6.3401 N   0  0  0  0  0  0  0  0  0  0  0  0
   51.2185  158.7349   -7.3798 N   0  0  0  0  0  0  0  0  0  0  0  0
   53.3752  157.6419   -4.8184 N   0  0  0  0  0  0  0  0  0  0  0  0
   54.7873  157.1528   -2.4271 O   0  0  0  0  0  0  0  0  0  0  0  0
   51.3438  161.9109   -6.8174 H   0  0  0  0  0  0  0  0  0  0  0  0
   49.7135  160.0804   -8.1085 H   0  0  0  0  0  0  0  0  0  0  0  0
   55.9129  156.7287   -4.7188 H   0  0  0  0  0  0  0  0  0  0  0  0
   55.1110  156.1279   -6.1828 H   0  0  0  0  0  0  0  0  0  0  0  0
   55.4943  155.0133   -4.8660 H   0  0  0  0  0  0  0  0  0  0  0  0
   52.8447  156.8353   -6.6573 H   0  0  0  0  0  0  0  0  0  0  0  0
   54.2482  157.9036   -6.6825 H   0  0  0  0  0  0  0  0  0  0  0  0
   52.8941  156.3862   -2.4837 H   0  0  0  0  0  0  0  0  0  0  0  0
   54.2088  155.1925   -2.6193 H   0  0  0  0  0  0  0  0  0  0  0  0
   53.0621  155.5959   -4.8419 H   0  0  0  0  0  0  0  0  0  0  0  0
   50.8717  157.8508   -7.7281 H   0  0  0  0  0  0  0  0  0  0  0  0
   54.0594  158.3232   -4.4834 H   0  0  0  0  0  0  0  0  0  0  0  0
   54.8025  157.0437   -1.4631 H   0  0  0  0  0  0  0  0  0  0  0  0
  1  2  2  0  0  0  0
  1  8  1  0  0  0  0
  2  9  1  0  0  0  0
  3  5  1  0  0  0  0
  3  8  2  0  0  0  0
  3  9  1  0  0  0  0
  4  7  1  0  0  0  0
  5 10  1  0  0  0  0
  6  7  1  0  0  0  0
  6 11  1  0  0  0  0
  7 10  1  0  0  0  0
  1 12  1  0  0  0  0
  2 13  1  0  0  0  0
  4 14  1  0  0  0  0
  4 15  1  0  0  0  0
  4 16  1  0  0  0  0
  5 17  1  0  0  0  0
  5 18  1  0  0  0  0
  6 19  1  0  0  0  0
  6 20  1  0  0  0  0
  7 21  1  0  0  0  0
  9 22  1  0  0  0  0
 10 23  1  0  0  0  0
 11 24  1  0  0  0  0
M  END
> <FRED Chemgauss4 score>
-5.526968

$$$$
C63065426	P96833787
  -OEChem-05122015083D

 22 22  0     1  0  0  0  0  0999 V2000
   55.8851  156.0397   -5.3032 C   0  0  0  0  0  0  0  0  0  0  0  0
   56.8446  153.9506   -6.3543 C   0  0  0  0  0  0  0  0  0  0  0  0
   53.4721  155.2400   -5.3289 C   0  0  0  0  0  0  0  0  0  0  0  0
   54.4962  156.1143   -3.1964 C   0  0  0  0  0  0  0  0  0  0  0  0
   54.7688  155.3683   -4.5127 C   0  0  2  0  0  0  0  0  0  0  0  0
   56.1778  157.3187   -5.3562 N   0  0  0  0  0  0  0  0  0  0  0  0
   57.2605  157.4171   -6.2007 N   0  0  0  0  0  0  0  0  0  0  0  0
   57.6224  156.2229   -6.6535 N   0  0  0  0  0  0  0  0  0  0  0  0
   56.7611  155.3636   -6.0912 N   0  0  0  0  0  0  0  0  0  0  0  0
   53.0080  156.5765   -5.7727 N   0  0  0  0  0  0  0  0  0  0  0  0
   53.4368  155.4742   -2.4935 O   0  0  0  0  0  0  0  0  0  0  0  0
   56.2224  153.7325   -7.2263 H   0  0  0  0  0  0  0  0  0  0  0  0
   57.8854  153.6774   -6.5493 H   0  0  0  0  0  0  0  0  0  0  0  0
   56.4872  153.3985   -5.4805 H   0  0  0  0  0  0  0  0  0  0  0  0
   52.6676  154.7579   -4.7638 H   0  0  0  0  0  0  0  0  0  0  0  0
   53.6506  154.6411   -6.2294 H   0  0  0  0  0  0  0  0  0  0  0  0
   55.3774  156.1466   -2.5471 H   0  0  0  0  0  0  0  0  0  0  0  0
   54.1817  157.1436   -3.4001 H   0  0  0  0  0  0  0  0  0  0  0  0
   55.1061  154.3556   -4.2497 H   0  0  0  0  0  0  0  0  0  0  0  0
   53.0852  157.3147   -5.1227 H   0  0  0  0  0  0  0  0  0  0  0  0
   52.4700  156.6107   -6.5991 H   0  0  0  0  0  0  0  0  0  0  0  0
   53.3022  155.9777   -1.6751 H   0  0  0  0  0  0  0  0  0  0  0  0
  1  5  1  0  0  0  0
  1  6  2  0  0  0  0
  1  9  1  0  0  0  0
  2  9  1  0  0  0  0
  3  5  1  0  0  0  0
  3 10  1  0  0  0  0
  4  5  1  0  0  0  0
  4 11  1  0  0  0  0
  6  7  1  0  0  0  0
  7  8  2  0  0  0  0
  8  9  1  0  0  0  0
  2 12  1  0  0  0  0
  2 13  1  0  0  0  0
  2 14  1  0  0  0  0
  3 15  1  0  0  0  0
  3 16  1  0  0  0  0
  4 17  1  0  0  0  0
  4 18  1  0  0  0  0
  5 19  1  0  0  0  0
 10 20  1  0  0  0  0
 10 21  1  0  0  0  0
 11 22  1  0  0  0  0
M  END
> <FRED Chemgauss4 score>
-5.525908

$$$$
C00330427	P23897779
  -OEChem-05122015083D

 18 18  0     0  0  0  0  0  0999 V2000
   55.6034  157.3508   -5.0323 C   0  0  0  0  0  0  0  0  0  0  0  0
   53.6875  155.6919   -5.9390 C   0  0  0  0  0  0  0  0  0  0  0  0
   55.9067  156.1885   -5.6520 C   0  0  0  0  0  0  0  0  0  0  0  0
   54.1925  157.7554   -4.8294 C   0  0  0  0  0  0  0  0  0  0  0  0
   57.5826  154.6383   -6.4671 C   0  0  0  0  0  0  0  0  0  0  0  0
   59.0783  154.4642   -6.5068 C   0  0  0  0  0  0  0  0  0  0  0  0
   54.9158  155.3363   -6.1180 N   0  0  0  0  0  0  0  0  0  0  0  0
   53.2831  156.8486   -5.3236 N   0  0  0  0  0  0  0  0  0  0  0  0
   57.2055  155.8154   -5.8402 N   0  0  0  0  0  0  0  0  0  0  0  0
   53.9066  158.8087   -4.2704 O   0  0  0  0  0  0  0  0  0  0  0  0
   56.8247  153.7883   -6.9291 O   0  0  0  0  0  0  0  0  0  0  0  0
   56.3714  158.0234   -4.6647 H   0  0  0  0  0  0  0  0  0  0  0  0
   52.8518  155.0645   -6.2839 H   0  0  0  0  0  0  0  0  0  0  0  0
   59.4069  153.9293   -5.6114 H   0  0  0  0  0  0  0  0  0  0  0  0
   59.5543  155.4480   -6.5377 H   0  0  0  0  0  0  0  0  0  0  0  0
   59.3836  153.8869   -7.3843 H   0  0  0  0  0  0  0  0  0  0  0  0
   52.2910  157.0447   -5.2299 H   0  0  0  0  0  0  0  0  0  0  0  0
   57.9367  156.4347   -5.5020 H   0  0  0  0  0  0  0  0  0  0  0  0
  1  3  2  0  0  0  0
  1  4  1  0  0  0  0
  2  7  2  0  0  0  0
  2  8  1  0  0  0  0
  3  7  1  0  0  0  0
  3  9  1  0  0  0  0
  4  8  1  0  0  0  0
  4 10  2  0  0  0  0
  5  6  1  0  0  0  0
  5  9  1  0  0  0  0
  5 11  2  0  0  0  0
  1 12  1  0  0  0  0
  2 13  1  0  0  0  0
  6 14  1  0  0  0  0
  6 15  1  0  0  0  0
  6 16  1  0  0  0  0
  8 17  1  0  0  0  0
  9 18  1  0  0  0  0
M  END
> <FRED Chemgauss4 score>
-5.521055

$$$$
C94230257	P147684548
  -OEChem-05122015083D

 39 38  0     1  0  0  0  0  0999 V2000
   53.8255  160.6276   -4.7716 C   0  0  0  0  0  0  0  0  0  0  0  0
   54.0257  156.3489   -3.1798 C   0  0  0  0  0  0  0  0  0  0  0  0
   54.1603  163.0743   -4.4865 C   0  0  0  0  0  0  0  0  0  0  0  0
   53.9334  166.2127   -0.2494 C   0  0  0  0  0  0  0  0  0  0  0  0
   55.9236  157.0830   -4.5789 C   0  0  0  0  0  0  0  0  0  0  0  0
   54.4939  159.3372   -4.3666 C   0  0  0  0  0  0  0  0  0  0  0  0
   54.7425  165.6028   -1.3834 C   0  0  0  0  0  0  0  0  0  0  0  0
   54.1235  165.9224   -2.7461 C   0  0  0  0  0  0  0  0  0  0  0  0
   54.9469  165.3740   -3.9068 C   0  0  0  0  0  0  0  0  0  0  0  0
   54.4103  156.8512   -4.5938 C   0  0  1  0  0  0  0  0  0  0  0  0
   54.0239  155.8976   -5.7177 C   0  0  0  0  0  0  0  0  0  0  0  0
   54.5225  161.7342   -4.2832 N   0  0  0  0  0  0  0  0  0  0  0  0
   55.0649  163.9344   -3.8672 N   0  0  0  0  0  0  0  0  0  0  0  0
   53.7731  158.1598   -4.9071 N   0  3  0  0  0  0  0  0  0  0  0  0
   54.0653  155.0927   -3.0293 O   0  5  0  0  0  0  0  0  0  0  0  0
   52.8003  160.6718   -5.4458 O   0  0  0  0  0  0  0  0  0  0  0  0
   53.7200  157.2369   -2.3355 O   0  0  0  0  0  0  0  0  0  0  0  0
   53.1753  163.4403   -5.1257 O   0  0  0  0  0  0  0  0  0  0  0  0
   52.6892  155.6837   -5.7480 F   0  0  0  0  0  0  0  0  0  0  0  0
   54.3814  156.3889   -6.9269 F   0  0  0  0  0  0  0  0  0  0  0  0
   54.6288  154.6960   -5.5824 F   0  0  0  0  0  0  0  0  0  0  0  0
   52.9016  165.8471   -0.2631 H   0  0  0  0  0  0  0  0  0  0  0  0
   54.3750  165.9475    0.7163 H   0  0  0  0  0  0  0  0  0  0  0  0
   53.9126  167.3045   -0.3249 H   0  0  0  0  0  0  0  0  0  0  0  0
   56.2835  157.4429   -5.5498 H   0  0  0  0  0  0  0  0  0  0  0  0
   56.2175  157.8236   -3.8259 H   0  0  0  0  0  0  0  0  0  0  0  0
   56.4609  156.1554   -4.3496 H   0  0  0  0  0  0  0  0  0  0  0  0
   55.5136  159.2965   -4.7597 H   0  0  0  0  0  0  0  0  0  0  0  0
   54.5008  159.2359   -3.2779 H   0  0  0  0  0  0  0  0  0  0  0  0
   55.7676  165.9886   -1.3409 H   0  0  0  0  0  0  0  0  0  0  0  0
   54.7970  164.5182   -1.2368 H   0  0  0  0  0  0  0  0  0  0  0  0
   53.1044  165.5187   -2.7907 H   0  0  0  0  0  0  0  0  0  0  0  0
   54.0450  167.0106   -2.8581 H   0  0  0  0  0  0  0  0  0  0  0  0
   55.9577  165.7936   -3.9103 H   0  0  0  0  0  0  0  0  0  0  0  0
   54.4688  165.6292   -4.8579 H   0  0  0  0  0  0  0  0  0  0  0  0
   55.3610  161.5638   -3.7342 H   0  0  0  0  0  0  0  0  0  0  0  0
   55.8468  163.5290   -3.3625 H   0  0  0  0  0  0  0  0  0  0  0  0
   52.8075  158.1556   -4.5468 H   0  0  0  0  0  0  0  0  0  0  0  0
   53.6863  158.2526   -5.9300 H   0  0  0  0  0  0  0  0  0  0  0  0
  1  6  1  0  0  0  0
  1 12  1  0  0  0  0
  1 16  2  0  0  0  0
  2 10  1  0  0  0  0
  2 15  1  0  0  0  0
  2 17  2  0  0  0  0
  3 12  1  0  0  0  0
  3 13  1  0  0  0  0
  3 18  2  0  0  0  0
  4  7  1  0  0  0  0
  5 10  1  0  0  0  0
  6 14  1  0  0  0  0
  7  8  1  0  0  0  0
  8  9  1  0  0  0  0
  9 13  1  0  0  0  0
 10 11  1  0  0  0  0
 10 14  1  0  0  0  0
 11 19  1  0  0  0  0
 11 20  1  0  0  0  0
 11 21  1  0  0  0  0
  4 22  1  0  0  0  0
  4 23  1  0  0  0  0
  4 24  1  0  0  0  0
  5 25  1  0  0  0  0
  5 26  1  0  0  0  0
  5 27  1  0  0  0  0
  6 28  1  0  0  0  0
  6 29  1  0  0  0  0
  7 30  1  0  0  0  0
  7 31  1  0  0  0  0
  8 32  1  0  0  0  0
  8 33  1  0  0  0  0
  9 34  1  0  0  0  0
  9 35  1  0  0  0  0
 12 36  1  0  0  0  0
 13 37  1  0  0  0  0
 14 38  1  0  0  0  0
 14 39  1  0  0  0  0
M  CHG  2  14   1  15  -1
M  END
> <FRED Chemgauss4 score>
-5.517824

$$$$
C96331765	P151982429
  -OEChem-05122015083D

 28 29  0     1  0  0  0  0  0999 V2000
   54.9475  157.7562   -3.0058 C   0  0  0  0  0  0  0  0  0  0  0  0
   55.5496  157.0755   -4.0340 C   0  0  0  0  0  0  0  0  0  0  0  0
   53.4637  156.4402   -3.7533 C   0  0  0  0  0  0  0  0  0  0  0  0
   57.5509  158.2434   -3.8775 C   0  0  0  0  0  0  0  0  0  0  0  0
   55.6595  158.7391   -2.1738 C   0  0  0  0  0  0  0  0  0  0  0  0
   56.8886  159.2588   -2.9446 C   0  0  1  0  0  0  0  0  0  0  0  0
   57.9337  159.8092   -1.9767 C   0  0  0  0  0  0  0  0  0  0  0  0
   54.7113  155.2352   -5.5544 C   0  0  0  0  0  0  0  0  0  0  0  0
   57.4419  156.3518   -5.4327 C   0  0  0  0  0  0  0  0  0  0  0  0
   53.6491  157.3637   -2.8321 N   0  0  0  0  0  0  0  0  0  0  0  0
   54.5929  156.2207   -4.5014 N   0  0  0  0  0  0  0  0  0  0  0  0
   56.8885  157.2751   -4.4232 N   0  3  0  0  0  0  0  0  0  0  0  0
   52.3386  155.7342   -4.0192 N   0  0  0  0  0  0  0  0  0  0  0  0
   58.6398  158.2963   -4.0218 H   0  0  0  0  0  0  0  0  0  0  0  0
   54.9804  159.5767   -1.9749 H   0  0  0  0  0  0  0  0  0  0  0  0
   55.9424  158.3117   -1.2067 H   0  0  0  0  0  0  0  0  0  0  0  0
   56.5562  160.0991   -3.5746 H   0  0  0  0  0  0  0  0  0  0  0  0
   58.2912  159.0096   -1.3323 H   0  0  0  0  0  0  0  0  0  0  0  0
   57.4895  160.5918   -1.3665 H   0  0  0  0  0  0  0  0  0  0  0  0
   58.7696  160.2205   -2.5375 H   0  0  0  0  0  0  0  0  0  0  0  0
   55.0331  154.2941   -5.1008 H   0  0  0  0  0  0  0  0  0  0  0  0
   53.7431  155.1108   -6.0472 H   0  0  0  0  0  0  0  0  0  0  0  0
   55.4456  155.5777   -6.2888 H   0  0  0  0  0  0  0  0  0  0  0  0
   57.2547  156.7766   -6.4204 H   0  0  0  0  0  0  0  0  0  0  0  0
   56.9408  155.3882   -5.3248 H   0  0  0  0  0  0  0  0  0  0  0  0
   58.5136  156.2514   -5.2519 H   0  0  0  0  0  0  0  0  0  0  0  0
   51.4859  155.8372   -3.4538 H   0  0  0  0  0  0  0  0  0  0  0  0
   52.3161  154.9976   -4.7363 H   0  0  0  0  0  0  0  0  0  0  0  0
  1  2  2  0  0  0  0
  1  5  1  0  0  0  0
  1 10  1  0  0  0  0
  2 11  1  0  0  0  0
  2 12  1  0  0  0  0
  3 10  2  0  0  0  0
  3 11  1  0  0  0  0
  3 13  1  0  0  0  0
  4  6  1  0  0  0  0
  4 12  2  0  0  0  0
  5  6  1  0  0  0  0
  6  7  1  0  0  0  0
  8 11  1  0  0  0  0
  9 12  1  0  0  0  0
  4 14  1  0  0  0  0
  5 15  1  0  0  0  0
  5 16  1  0  0  0  0
  6 17  1  0  0  0  0
  7 18  1  0  0  0  0
  7 19  1  0  0  0  0
  7 20  1  0  0  0  0
  8 21  1  0  0  0  0
  8 22  1  0  0  0  0
  8 23  1  0  0  0  0
  9 24  1  0  0  0  0
  9 25  1  0  0  0  0
  9 26  1  0  0  0  0
 13 27  1  0  0  0  0
 13 28  1  0  0  0  0
M  CHG  1  12   1
M  END
> <FRED Chemgauss4 score>
-5.515692

$$$$
C84444287	P132137690
  -OEChem-05122015083D

 22 22  0     0  0  0  0  0  0999 V2000
   53.0729  157.7578   -3.3396 C   0  0  0  0  0  0  0  0  0  0  0  0
   54.0311  156.3485   -4.6277 C   0  0  0  0  0  0  0  0  0  0  0  0
   53.7639  157.8704   -4.7200 C   0  0  0  0  0  0  0  0  0  0  0  0
   53.9606  156.5137   -3.0894 C   0  0  0  0  0  0  0  0  0  0  0  0
   52.4799  159.6882   -5.8538 C   0  0  0  0  0  0  0  0  0  0  0  0
   51.5602  159.9307   -7.0343 C   0  0  0  0  0  0  0  0  0  0  0  0
   52.8487  158.2397   -5.8046 N   0  3  0  0  0  0  0  0  0  0  0  0
   53.2849  155.4678   -2.4476 O   0  5  0  0  0  0  0  0  0  0  0  0
   50.3683  159.1733   -6.8724 O   0  0  0  0  0  0  0  0  0  0  0  0
   53.2503  158.6016   -2.6654 H   0  0  0  0  0  0  0  0  0  0  0  0
   51.9914  157.5727   -3.3867 H   0  0  0  0  0  0  0  0  0  0  0  0
   53.2497  155.7225   -5.0790 H   0  0  0  0  0  0  0  0  0  0  0  0
   55.0013  156.0264   -5.0189 H   0  0  0  0  0  0  0  0  0  0  0  0
   54.6729  158.4829   -4.7142 H   0  0  0  0  0  0  0  0  0  0  0  0
   54.9226  156.7329   -2.6138 H   0  0  0  0  0  0  0  0  0  0  0  0
   51.9951  159.9154   -4.9002 H   0  0  0  0  0  0  0  0  0  0  0  0
   53.4149  160.2469   -5.9481 H   0  0  0  0  0  0  0  0  0  0  0  0
   51.2843  160.9888   -7.0792 H   0  0  0  0  0  0  0  0  0  0  0  0
   52.0343  159.6504   -7.9806 H   0  0  0  0  0  0  0  0  0  0  0  0
   53.2569  157.9803   -6.7210 H   0  0  0  0  0  0  0  0  0  0  0  0
   51.9747  157.6870   -5.7387 H   0  0  0  0  0  0  0  0  0  0  0  0
   49.8120  159.3579   -7.6464 H   0  0  0  0  0  0  0  0  0  0  0  0
  1  3  1  0  0  0  0
  1  4  1  0  0  0  0
  2  3  1  0  0  0  0
  2  4  1  0  0  0  0
  3  7  1  0  0  0  0
  4  8  1  0  0  0  0
  5  6  1  0  0  0  0
  5  7  1  0  0  0  0
  6  9  1  0  0  0  0
  1 10  1  0  0  0  0
  1 11  1  0  0  0  0
  2 12  1  0  0  0  0
  2 13  1  0  0  0  0
  3 14  1  0  0  0  0
  4 15  1  0  0  0  0
  5 16  1  0  0  0  0
  5 17  1  0  0  0  0
  6 18  1  0  0  0  0
  6 19  1  0  0  0  0
  7 20  1  0  0  0  0
  7 21  1  0  0  0  0
  9 22  1  0  0  0  0
M  CHG  2   7   1   8  -1
M  END
> <FRED Chemgauss4 score>
-5.513165

$$$$
C84081050	P131584458
  -OEChem-05122015083D

 27 28  0     1  0  0  0  0  0999 V2000
   52.9896  160.1281   -6.8173 C   0  0  0  0  0  0  0  0  0  0  0  0
   51.1334  159.9755   -7.8477 C   0  0  0  0  0  0  0  0  0  0  0  0
   52.5181  158.8666   -6.5402 C   0  0  0  0  0  0  0  0  0  0  0  0
   53.7479  155.6621   -3.3199 C   0  0  0  0  0  0  0  0  0  0  0  0
   55.1194  155.9705   -5.1516 C   0  0  0  0  0  0  0  0  0  0  0  0
   52.9548  155.1525   -4.4909 C   0  0  0  0  0  0  0  0  0  0  0  0
   53.8107  155.4733   -5.7072 C   0  0  1  0  0  0  0  0  0  0  0  0
   56.0260  156.5590   -2.9064 C   0  0  0  0  0  0  0  0  0  0  0  0
   53.0686  157.7376   -5.7177 C   0  0  0  0  0  0  0  0  0  0  0  0
   52.1228  160.8134   -7.6314 N   0  0  0  0  0  0  0  0  0  0  0  0
   51.3281  158.7836   -7.2068 N   0  0  0  0  0  0  0  0  0  0  0  0
   54.9857  156.0536   -3.7816 N   0  0  0  0  0  0  0  0  0  0  0  0
   53.2751  156.5345   -6.5123 N   0  0  0  0  0  0  0  0  0  0  0  0
   53.3324  155.6852   -2.1695 O   0  0  0  0  0  0  0  0  0  0  0  0
   56.0810  156.3008   -5.8325 O   0  0  0  0  0  0  0  0  0  0  0  0
   53.9088  160.5802   -6.4731 H   0  0  0  0  0  0  0  0  0  0  0  0
   50.2571  160.1666   -8.4507 H   0  0  0  0  0  0  0  0  0  0  0  0
   52.8185  154.0716   -4.3826 H   0  0  0  0  0  0  0  0  0  0  0  0
   51.9700  155.6298   -4.5132 H   0  0  0  0  0  0  0  0  0  0  0  0
   53.9909  154.5819   -6.3119 H   0  0  0  0  0  0  0  0  0  0  0  0
   56.6473  155.7349   -2.5464 H   0  0  0  0  0  0  0  0  0  0  0  0
   55.5822  157.0671   -2.0459 H   0  0  0  0  0  0  0  0  0  0  0  0
   56.6602  157.2691   -3.4439 H   0  0  0  0  0  0  0  0  0  0  0  0
   54.0299  158.0171   -5.2728 H   0  0  0  0  0  0  0  0  0  0  0  0
   52.3913  157.4837   -4.8955 H   0  0  0  0  0  0  0  0  0  0  0  0
   50.7042  157.9875   -7.2257 H   0  0  0  0  0  0  0  0  0  0  0  0
   52.3843  156.2373   -6.9093 H   0  0  0  0  0  0  0  0  0  0  0  0
  1  3  2  0  0  0  0
  1 10  1  0  0  0  0
  2 10  2  0  0  0  0
  2 11  1  0  0  0  0
  3  9  1  0  0  0  0
  3 11  1  0  0  0  0
  4  6  1  0  0  0  0
  4 12  1  0  0  0  0
  4 14  2  0  0  0  0
  5  7  1  0  0  0  0
  5 12  1  0  0  0  0
  5 15  2  0  0  0  0
  6  7  1  0  0  0  0
  7 13  1  0  0  0  0
  8 12  1  0  0  0  0
  9 13  1  0  0  0  0
  1 16  1  0  0  0  0
  2 17  1  0  0  0  0
  6 18  1  0  0  0  0
  6 19  1  0  0  0  0
  7 20  1  0  0  0  0
  8 21  1  0  0  0  0
  8 22  1  0  0  0  0
  8 23  1  0  0  0  0
  9 24  1  0  0  0  0
  9 25  1  0  0  0  0
 11 26  1  0  0  0  0
 13 27  1  0  0  0  0
M  END
> <FRED Chemgauss4 score>
-5.508621

$$$$
C05517273	P08195376
  -OEChem-05122015083D

 21 21  0     1  0  0  0  0  0999 V2000
   53.8764  156.3479   -3.1364 C   0  0  0  0  0  0  0  0  0  0  0  0
   54.8111  158.6517   -2.8300 C   0  0  0  0  0  0  0  0  0  0  0  0
   56.0061  156.8631   -4.1105 C   0  0  0  0  0  0  0  0  0  0  0  0
   55.0355  156.4437   -5.2026 C   0  0  0  0  0  0  0  0  0  0  0  0
   55.1144  157.1901   -2.9066 C   0  0  2  0  0  0  0  0  0  0  0  0
   53.9257  155.9269   -4.4589 N   0  0  0  0  0  0  0  0  0  0  0  0
   52.8979  155.2411   -5.0577 N   0  0  0  0  0  0  0  0  0  0  0  0
   54.5102  160.5962   -4.1683 N   0  0  0  0  0  0  0  0  0  0  0  0
   54.8048  159.2515   -4.0747 N   0  0  0  0  0  0  0  0  0  0  0  0
   53.0033  156.1449   -2.3059 O   0  0  0  0  0  0  0  0  0  0  0  0
   54.5743  159.2060   -1.7590 O   0  0  0  0  0  0  0  0  0  0  0  0
   56.6537  156.0140   -3.8566 H   0  0  0  0  0  0  0  0  0  0  0  0
   56.6493  157.6897   -4.4284 H   0  0  0  0  0  0  0  0  0  0  0  0
   54.6957  157.3045   -5.7883 H   0  0  0  0  0  0  0  0  0  0  0  0
   55.4564  155.6819   -5.8651 H   0  0  0  0  0  0  0  0  0  0  0  0
   55.5998  156.8855   -1.9729 H   0  0  0  0  0  0  0  0  0  0  0  0
   52.3965  154.6364   -4.3824 H   0  0  0  0  0  0  0  0  0  0  0  0
   53.2483  154.5757   -5.7696 H   0  0  0  0  0  0  0  0  0  0  0  0
   55.0605  160.9664   -4.9421 H   0  0  0  0  0  0  0  0  0  0  0  0
   54.8762  161.0386   -3.3264 H   0  0  0  0  0  0  0  0  0  0  0  0
   55.0139  158.7108   -4.9080 H   0  0  0  0  0  0  0  0  0  0  0  0
  1  5  1  0  0  0  0
  1  6  1  0  0  0  0
  1 10  2  0  0  0  0
  2  5  1  0  0  0  0
  2  9  1  0  0  0  0
  2 11  2  0  0  0  0
  3  4  1  0  0  0  0
  3  5  1  0  0  0  0
  4  6  1  0  0  0  0
  6  7  1  0  0  0  0
  8  9  1  0  0  0  0
  3 12  1  0  0  0  0
  3 13  1  0  0  0  0
  4 14  1  0  0  0  0
  4 15  1  0  0  0  0
  5 16  1  0  0  0  0
  7 17  1  0  0  0  0
  7 18  1  0  0  0  0
  8 19  1  0  0  0  0
  8 20  1  0  0  0  0
  9 21  1  0  0  0  0
M  END
> <FRED Chemgauss4 score>
-5.507154

$$$$
C22059726	P32818286
  -OEChem-05122015083D

 24 24  0     1  0  0  0  0  0999 V2000
   53.1015  155.4275   -4.4635 C   0  0  1  0  0  0  0  0  0  0  0  0
   53.9867  155.7509   -5.6710 C   0  0  1  0  0  0  0  0  0  0  0  0
   53.5618  156.1982   -3.2240 C   0  0  1  0  0  0  0  0  0  0  0  0
   55.4677  155.5778   -5.3065 C   0  0  1  0  0  0  0  0  0  0  0  0
   55.0574  155.9525   -2.9867 C   0  0  2  0  0  0  0  0  0  0  0  0
   56.3813  156.0384   -6.4380 C   0  0  0  0  0  0  0  0  0  0  0  0
   55.5099  156.6862   -1.8068 N   0  0  0  0  0  0  0  0  0  0  0  0
   55.8008  156.3454   -4.1460 O   0  0  0  0  0  0  0  0  0  0  0  0
   51.7439  155.7622   -4.7388 O   0  0  0  0  0  0  0  0  0  0  0  0
   53.6709  154.8695   -6.7456 O   0  0  0  0  0  0  0  0  0  0  0  0
   53.3371  157.5938   -3.4463 O   0  0  0  0  0  0  0  0  0  0  0  0
   53.1297  154.3496   -4.2614 H   0  0  0  0  0  0  0  0  0  0  0  0
   53.7883  156.7756   -6.0113 H   0  0  0  0  0  0  0  0  0  0  0  0
   52.9601  155.9050   -2.3563 H   0  0  0  0  0  0  0  0  0  0  0  0
   55.6886  154.5204   -5.1129 H   0  0  0  0  0  0  0  0  0  0  0  0
   55.2318  154.8898   -2.7998 H   0  0  0  0  0  0  0  0  0  0  0  0
   56.1933  157.0875   -6.6625 H   0  0  0  0  0  0  0  0  0  0  0  0
   56.1929  155.4444   -7.3315 H   0  0  0  0  0  0  0  0  0  0  0  0
   57.4236  155.9188   -6.1447 H   0  0  0  0  0  0  0  0  0  0  0  0
   56.4800  156.9025   -1.7333 H   0  0  0  0  0  0  0  0  0  0  0  0
   54.8842  156.7633   -1.0348 H   0  0  0  0  0  0  0  0  0  0  0  0
   51.2373  155.5364   -3.9434 H   0  0  0  0  0  0  0  0  0  0  0  0
   53.8406  153.9707   -6.4239 H   0  0  0  0  0  0  0  0  0  0  0  0
   53.6384  158.0477   -2.6459 H   0  0  0  0  0  0  0  0  0  0  0  0
  1  2  1  0  0  0  0
  1  3  1  0  0  0  0
  1  9  1  0  0  0  0
  2  4  1  0  0  0  0
  2 10  1  0  0  0  0
  3  5  1  0  0  0  0
  3 11  1  0  0  0  0
  4  6  1  0  0  0  0
  4  8  1  0  0  0  0
  5  7  1  0  0  0  0
  5  8  1  0  0  0  0
  1 12  1  0  0  0  0
  2 13  1  0  0  0  0
  3 14  1  0  0  0  0
  4 15  1  0  0  0  0
  5 16  1  0  0  0  0
  6 17  1  0  0  0  0
  6 18  1  0  0  0  0
  6 19  1  0  0  0  0
  7 20  1  0  0  0  0
  7 21  1  0  0  0  0
  9 22  1  0  0  0  0
 10 23  1  0  0  0  0
 11 24  1  0  0  0  0
M  END
> <FRED Chemgauss4 score>
-5.506664

$$$$
C85169335	P133261678
  -OEChem-05122015083D

 28 29  0     1  0  0  0  0  0999 V2000
   56.4208  154.2483   -6.4705 C   0  0  0  0  0  0  0  0  0  0  0  0
   55.2603  152.5911   -7.1319 C   0  0  0  0  0  0  0  0  0  0  0  0
   55.1134  154.6706   -6.4171 C   0  0  0  0  0  0  0  0  0  0  0  0
   53.5785  156.0649   -3.6366 C   0  0  0  0  0  0  0  0  0  0  0  0
   54.7688  156.8922   -3.1967 C   0  0  0  0  0  0  0  0  0  0  0  0
   55.9620  156.8718   -4.1399 C   0  0  0  0  0  0  0  0  0  0  0  0
   54.4944  155.9985   -5.9981 C   0  0  2  0  0  0  0  0  0  0  0  0
   55.4975  157.0925   -5.5775 C   0  0  2  0  0  0  0  0  0  0  0  0
   52.9456  153.5250   -6.9730 C   0  0  0  0  0  0  0  0  0  0  0  0
   56.5055  152.9531   -6.9165 N   0  0  0  0  0  0  0  0  0  0  0  0
   54.3817  153.5984   -6.8441 N   0  0  0  0  0  0  0  0  0  0  0  0
   53.4611  155.7951   -4.9810 N   0  0  0  0  0  0  0  0  0  0  0  0
   56.6453  157.1865   -6.4770 N   0  0  0  0  0  0  0  0  0  0  0  0
   52.7189  155.7254   -2.8207 O   0  0  0  0  0  0  0  0  0  0  0  0
   57.3071  154.8092   -6.2110 H   0  0  0  0  0  0  0  0  0  0  0  0
   54.9375  151.6239   -7.4922 H   0  0  0  0  0  0  0  0  0  0  0  0
   54.4115  157.9230   -3.0830 H   0  0  0  0  0  0  0  0  0  0  0  0
   55.0839  156.5419   -2.2073 H   0  0  0  0  0  0  0  0  0  0  0  0
   56.6722  157.6510   -3.8368 H   0  0  0  0  0  0  0  0  0  0  0  0
   56.4870  155.9125   -4.0463 H   0  0  0  0  0  0  0  0  0  0  0  0
   53.9340  156.3811   -6.9111 H   0  0  0  0  0  0  0  0  0  0  0  0
   54.9720  158.0623   -5.6092 H   0  0  0  0  0  0  0  0  0  0  0  0
   52.5396  153.1665   -6.0235 H   0  0  0  0  0  0  0  0  0  0  0  0
   52.5499  154.5170   -7.2078 H   0  0  0  0  0  0  0  0  0  0  0  0
   52.6903  152.8367   -7.7835 H   0  0  0  0  0  0  0  0  0  0  0  0
   52.5724  155.4187   -5.2980 H   0  0  0  0  0  0  0  0  0  0  0  0
   57.4802  157.6024   -6.1273 H   0  0  0  0  0  0  0  0  0  0  0  0
   56.4926  157.0241   -7.4479 H   0  0  0  0  0  0  0  0  0  0  0  0
  1  3  2  0  0  0  0
  1 10  1  0  0  0  0
  2 10  2  0  0  0  0
  2 11  1  0  0  0  0
  3  7  1  0  0  0  0
  3 11  1  0  0  0  0
  4  5  1  0  0  0  0
  4 12  1  0  0  0  0
  4 14  2  0  0  0  0
  5  6  1  0  0  0  0
  6  8  1  0  0  0  0
  7  8  1  0  0  0  0
  7 12  1  0  0  0  0
  8 13  1  0  0  0  0
  9 11  1  0  0  0  0
  1 15  1  0  0  0  0
  2 16  1  0  0  0  0
  5 17  1  0  0  0  0
  5 18  1  0  0  0  0
  6 19  1  0  0  0  0
  6 20  1  0  0  0  0
  7 21  1  0  0  0  0
  8 22  1  0  0  0  0
  9 23  1  0  0  0  0
  9 24  1  0  0  0  0
  9 25  1  0  0  0  0
 12 26  1  0  0  0  0
 13 27  1  0  0  0  0
 13 28  1  0  0  0  0
M  END
> <FRED Chemgauss4 score>
-5.498443

$$$$
C45084447	P128457551
  -OEChem-05122015083D

 27 27  0     0  0  0  0  0  0999 V2000
   57.2419  159.0605   -2.9757 C   0  0  0  0  0  0  0  0  0  0  0  0
   56.4399  158.1546   -3.6611 C   0  0  0  0  0  0  0  0  0  0  0  0
   55.5248  159.2655   -1.3428 C   0  0  0  0  0  0  0  0  0  0  0  0
   56.7830  159.6310   -1.7937 C   0  0  0  0  0  0  0  0  0  0  0  0
   55.1972  157.8551   -3.1265 C   0  0  0  0  0  0  0  0  0  0  0  0
   53.7160  155.4184   -5.6259 C   0  0  0  0  0  0  0  0  0  0  0  0
   54.8069  156.3135   -5.0492 C   0  0  0  0  0  0  0  0  0  0  0  0
   54.1317  154.7657   -6.9373 C   0  0  0  0  0  0  0  0  0  0  0  0
   54.7172  158.3891   -1.9810 N   0  0  0  0  0  0  0  0  0  0  0  0
   55.4107  152.7523   -8.1040 N   0  0  0  0  0  0  0  0  0  0  0  0
   54.4082  156.9478   -3.8228 N   0  0  0  0  0  0  0  0  0  0  0  0
   56.7355  154.5662   -6.8506 O   0  0  0  0  0  0  0  0  0  0  0  0
   55.3395  152.9188   -5.5380 O   0  0  0  0  0  0  0  0  0  0  0  0
   55.5499  153.7373   -6.7195 S   0  0  0  0  0  0  0  0  0  0  0  0
   57.8396  160.8600   -0.8348 Br  0  0  0  0  0  0  0  0  0  0  0  0
   58.2210  159.3119   -3.3749 H   0  0  0  0  0  0  0  0  0  0  0  0
   56.7897  157.7055   -4.5850 H   0  0  0  0  0  0  0  0  0  0  0  0
   55.1085  159.6743   -0.4272 H   0  0  0  0  0  0  0  0  0  0  0  0
   52.8156  156.0224   -5.7924 H   0  0  0  0  0  0  0  0  0  0  0  0
   53.4433  154.6436   -4.8984 H   0  0  0  0  0  0  0  0  0  0  0  0
   55.7194  155.7428   -4.8493 H   0  0  0  0  0  0  0  0  0  0  0  0
   55.0508  157.1121   -5.7567 H   0  0  0  0  0  0  0  0  0  0  0  0
   53.3359  154.1283   -7.3340 H   0  0  0  0  0  0  0  0  0  0  0  0
   54.3977  155.5105   -7.6931 H   0  0  0  0  0  0  0  0  0  0  0  0
   56.0909  152.8925   -8.8612 H   0  0  0  0  0  0  0  0  0  0  0  0
   55.1399  151.7707   -7.9673 H   0  0  0  0  0  0  0  0  0  0  0  0
   53.4942  156.7240   -3.4370 H   0  0  0  0  0  0  0  0  0  0  0  0
  1  2  1  0  0  0  0
  1  4  2  0  0  0  0
  2  5  2  0  0  0  0
  3  4  1  0  0  0  0
  3  9  2  0  0  0  0
  4 15  1  0  0  0  0
  5  9  1  0  0  0  0
  5 11  1  0  0  0  0
  6  7  1  0  0  0  0
  6  8  1  0  0  0  0
  7 11  1  0  0  0  0
  8 14  1  0  0  0  0
 10 14  1  0  0  0  0
 12 14  2  0  0  0  0
 13 14  2  0  0  0  0
  1 16  1  0  0  0  0
  2 17  1  0  0  0  0
  3 18  1  0  0  0  0
  6 19  1  0  0  0  0
  6 20  1  0  0  0  0
  7 21  1  0  0  0  0
  7 22  1  0  0  0  0
  8 23  1  0  0  0  0
  8 24  1  0  0  0  0
 10 25  1  0  0  0  0
 10 26  1  0  0  0  0
 11 27  1  0  0  0  0
M  END
> <FRED Chemgauss4 score>
-5.498106

$$$$
C87548480	P136945367
  -OEChem-05122015083D

 29 30  0     1  0  0  0  0  0999 V2000
   55.2196  158.3169   -2.7008 C   0  0  0  0  0  0  0  0  0  0  0  0
   54.3288  156.6792   -3.5974 C   0  0  0  0  0  0  0  0  0  0  0  0
   56.3982  160.5099   -3.4974 C   0  0  0  0  0  0  0  0  0  0  0  0
   55.6576  160.8528   -2.2427 C   0  0  0  0  0  0  0  0  0  0  0  0
   56.2020  159.4480   -2.4302 C   0  0  0  0  0  0  0  0  0  0  0  0
   57.4069  159.0555   -1.6118 C   0  0  0  0  0  0  0  0  0  0  0  0
   55.8561  155.6592   -6.0840 C   0  0  0  0  0  0  0  0  0  0  0  0
   53.8804  155.4917   -4.4381 C   0  0  2  0  0  0  0  0  0  0  0  0
   54.3389  155.6362   -5.9098 C   0  0  2  0  0  0  0  0  0  0  0  0
   55.3680  157.4600   -3.7523 N   0  0  0  0  0  0  0  0  0  0  0  0
   54.1559  158.1012   -1.9212 N   0  0  0  0  0  0  0  0  0  0  0  0
   52.4279  155.3142   -4.3325 N   0  0  0  0  0  0  0  0  0  0  0  0
   53.5519  156.9925   -2.5275 O   0  0  0  0  0  0  0  0  0  0  0  0
   53.8431  154.5251   -6.6645 O   0  0  0  0  0  0  0  0  0  0  0  0
   55.8234  160.4305   -4.4141 H   0  0  0  0  0  0  0  0  0  0  0  0
   57.3819  160.9454   -3.6373 H   0  0  0  0  0  0  0  0  0  0  0  0
   56.1424  161.5201   -1.5380 H   0  0  0  0  0  0  0  0  0  0  0  0
   54.5854  161.0023   -2.3161 H   0  0  0  0  0  0  0  0  0  0  0  0
   58.0667  159.9155   -1.4575 H   0  0  0  0  0  0  0  0  0  0  0  0
   57.9794  158.2713   -2.1179 H   0  0  0  0  0  0  0  0  0  0  0  0
   57.1016  158.6776   -0.6306 H   0  0  0  0  0  0  0  0  0  0  0  0
   56.3310  154.7765   -5.6468 H   0  0  0  0  0  0  0  0  0  0  0  0
   56.2895  156.5556   -5.6269 H   0  0  0  0  0  0  0  0  0  0  0  0
   56.1161  155.6931   -7.1481 H   0  0  0  0  0  0  0  0  0  0  0  0
   54.3500  154.5883   -4.0263 H   0  0  0  0  0  0  0  0  0  0  0  0
   53.9228  156.5418   -6.3659 H   0  0  0  0  0  0  0  0  0  0  0  0
   51.9972  155.5337   -3.4643 H   0  0  0  0  0  0  0  0  0  0  0  0
   51.9721  154.7981   -5.0492 H   0  0  0  0  0  0  0  0  0  0  0  0
   54.1019  154.6862   -7.5831 H   0  0  0  0  0  0  0  0  0  0  0  0
  1  5  1  0  0  0  0
  1 10  1  0  0  0  0
  1 11  2  0  0  0  0
  2  8  1  0  0  0  0
  2 10  2  0  0  0  0
  2 13  1  0  0  0  0
  3  4  1  0  0  0  0
  3  5  1  0  0  0  0
  4  5  1  0  0  0  0
  5  6  1  0  0  0  0
  7  9  1  0  0  0  0
  8  9  1  0  0  0  0
  8 12  1  0  0  0  0
  9 14  1  0  0  0  0
 11 13  1  0  0  0  0
  3 15  1  0  0  0  0
  3 16  1  0  0  0  0
  4 17  1  0  0  0  0
  4 18  1  0  0  0  0
  6 19  1  0  0  0  0
  6 20  1  0  0  0  0
  6 21  1  0  0  0  0
  7 22  1  0  0  0  0
  7 23  1  0  0  0  0
  7 24  1  0  0  0  0
  8 25  1  0  0  0  0
  9 26  1  0  0  0  0
 12 27  1  0  0  0  0
 12 28  1  0  0  0  0
 14 29  1  0  0  0  0
M  END
> <FRED Chemgauss4 score>
-5.497478

$$$$
C86136121	P134894996
  -OEChem-05122015083D

 34 34  0     1  0  0  0  0  0999 V2000
   55.5363  155.9210   -3.7209 C   0  0  0  0  0  0  0  0  0  0  0  0
   56.7975  158.4613   -4.2213 C   0  0  0  0  0  0  0  0  0  0  0  0
   56.1870  158.2761   -2.8369 C   0  0  0  0  0  0  0  0  0  0  0  0
   55.9572  157.7949   -5.2912 C   0  0  0  0  0  0  0  0  0  0  0  0
   55.3429  157.0119   -2.6757 C   0  0  1  0  0  0  0  0  0  0  0  0
   56.8623  153.2264   -6.9064 C   0  0  0  0  0  0  0  0  0  0  0  0
   58.4374  154.9909   -6.0747 C   0  0  0  0  0  0  0  0  0  0  0  0
   54.5371  154.8027   -6.3694 C   0  0  0  0  0  0  0  0  0  0  0  0
   57.0284  154.4052   -5.9409 C   0  0  0  0  0  0  0  0  0  0  0  0
   55.9033  155.4512   -6.1291 C   0  0  2  0  0  0  0  0  0  0  0  0
   55.8274  156.3722   -5.0062 N   0  0  0  0  0  0  0  0  0  0  0  0
   53.9288  157.2974   -2.6936 N   0  0  0  0  0  0  0  0  0  0  0  0
   55.3333  154.7407   -3.4280 O   0  0  0  0  0  0  0  0  0  0  0  0
   53.5542  155.8218   -6.5239 O   0  0  0  0  0  0  0  0  0  0  0  0
   56.9057  159.5382   -4.4451 H   0  0  0  0  0  0  0  0  0  0  0  0
   57.8225  158.0444   -4.2308 H   0  0  0  0  0  0  0  0  0  0  0  0
   57.0063  158.2807   -2.0743 H   0  0  0  0  0  0  0  0  0  0  0  0
   55.5785  159.1838   -2.5875 H   0  0  0  0  0  0  0  0  0  0  0  0
   54.9616  158.2146   -5.3040 H   0  0  0  0  0  0  0  0  0  0  0  0
   56.4282  157.9225   -6.2540 H   0  0  0  0  0  0  0  0  0  0  0  0
   55.5781  156.5326   -1.7050 H   0  0  0  0  0  0  0  0  0  0  0  0
   56.9434  153.5648   -7.9451 H   0  0  0  0  0  0  0  0  0  0  0  0
   55.8880  152.7406   -6.7896 H   0  0  0  0  0  0  0  0  0  0  0  0
   57.6412  152.4747   -6.7409 H   0  0  0  0  0  0  0  0  0  0  0  0
   58.6002  155.4154   -7.0698 H   0  0  0  0  0  0  0  0  0  0  0  0
   58.5875  155.7982   -5.3493 H   0  0  0  0  0  0  0  0  0  0  0  0
   59.2088  154.2351   -5.8942 H   0  0  0  0  0  0  0  0  0  0  0  0
   54.2353  154.1644   -5.5327 H   0  0  0  0  0  0  0  0  0  0  0  0
   54.5463  154.2077   -7.2882 H   0  0  0  0  0  0  0  0  0  0  0  0
   56.9370  154.0000   -4.9242 H   0  0  0  0  0  0  0  0  0  0  0  0
   56.1437  156.0780   -6.9974 H   0  0  0  0  0  0  0  0  0  0  0  0
   53.6166  158.1348   -2.2548 H   0  0  0  0  0  0  0  0  0  0  0  0
   53.3084  156.5640   -2.9557 H   0  0  0  0  0  0  0  0  0  0  0  0
   52.7085  155.3708   -6.6733 H   0  0  0  0  0  0  0  0  0  0  0  0
  1  5  1  0  0  0  0
  1 11  1  0  0  0  0
  1 13  2  0  0  0  0
  2  3  1  0  0  0  0
  2  4  1  0  0  0  0
  3  5  1  0  0  0  0
  4 11  1  0  0  0  0
  5 12  1  0  0  0  0
  6  9  1  0  0  0  0
  7  9  1  0  0  0  0
  8 10  1  0  0  0  0
  8 14  1  0  0  0  0
  9 10  1  0  0  0  0
 10 11  1  0  0  0  0
  2 15  1  0  0  0  0
  2 16  1  0  0  0  0
  3 17  1  0  0  0  0
  3 18  1  0  0  0  0
  4 19  1  0  0  0  0
  4 20  1  0  0  0  0
  5 21  1  0  0  0  0
  6 22  1  0  0  0  0
  6 23  1  0  0  0  0
  6 24  1  0  0  0  0
  7 25  1  0  0  0  0
  7 26  1  0  0  0  0
  7 27  1  0  0  0  0
  8 28  1  0  0  0  0
  8 29  1  0  0  0  0
  9 30  1  0  0  0  0
 10 31  1  0  0  0  0
 12 32  1  0  0  0  0
 12 33  1  0  0  0  0
 14 34  1  0  0  0  0
M  END
> <FRED Chemgauss4 score>
-5.496155

$$$$
Glutamate
  -OEChem-05122015083D

 19 18  0     1  0  0  0  0  0999 V2000
   54.2003  155.6700   -3.0113 C   0  0  0  0  0  0  0  0  0  0  0  0
   53.9352  156.1192   -6.3835 C   0  0  0  0  0  0  0  0  0  0  0  0
   55.1868  155.0601   -3.9753 C   0  0  0  0  0  0  0  0  0  0  0  0
   55.9382  156.0868   -4.8273 C   0  0  0  0  0  0  0  0  0  0  0  0
   55.0835  156.9206   -5.7964 C   0  0  1  0  0  0  0  0  0  0  0  0
   55.8726  157.4598   -6.9018 N   0  0  0  0  0  0  0  0  0  0  0  0
   54.2921  156.8078   -2.5684 O   0  0  0  0  0  0  0  0  0  0  0  0
   53.9398  154.9109   -6.5805 O   0  0  0  0  0  0  0  0  0  0  0  0
   53.1871  154.8264   -2.6941 O   0  0  0  0  0  0  0  0  0  0  0  0
   52.8667  156.9054   -6.6807 O   0  0  0  0  0  0  0  0  0  0  0  0
   54.6565  154.3349   -4.6021 H   0  0  0  0  0  0  0  0  0  0  0  0
   55.9015  154.4741   -3.3842 H   0  0  0  0  0  0  0  0  0  0  0  0
   56.5031  156.7672   -4.1774 H   0  0  0  0  0  0  0  0  0  0  0  0
   56.6873  155.5389   -5.4134 H   0  0  0  0  0  0  0  0  0  0  0  0
   54.6546  157.7742   -5.2576 H   0  0  0  0  0  0  0  0  0  0  0  0
   56.8047  157.7559   -6.7108 H   0  0  0  0  0  0  0  0  0  0  0  0
   55.3961  157.7000   -7.7435 H   0  0  0  0  0  0  0  0  0  0  0  0
   52.5187  155.1912   -2.0755 H   0  0  0  0  0  0  0  0  0  0  0  0
   52.0958  156.4366   -7.0656 H   0  0  0  0  0  0  0  0  0  0  0  0
  1  3  1  0  0  0  0
  1  7  2  0  0  0  0
  1  9  1  0  0  0  0
  2  5  1  0  0  0  0
  2  8  2  0  0  0  0
  2 10  1  0  0  0  0
  3  4  1  0  0  0  0
  4  5  1  0  0  0  0
  5  6  1  0  0  0  0
  3 11  1  0  0  0  0
  3 12  1  0  0  0  0
  4 13  1  0  0  0  0
  4 14  1  0  0  0  0
  5 15  1  0  0  0  0
  6 16  1  0  0  0  0
  6 17  1  0  0  0  0
  9 18  1  0  0  0  0
 10 19  1  0  0  0  0
M  END
> <FRED Chemgauss4 score>
-5.484543

$$$$
C82469324	P128880837
  -OEChem-05122015083D

 34 34  0     1  0  0  0  0  0999 V2000
   53.5811  155.9682   -2.9410 C   0  0  0  0  0  0  0  0  0  0  0  0
   54.7973  160.0839   -2.9126 C   0  0  0  0  0  0  0  0  0  0  0  0
   54.4793  158.6499   -3.3198 C   0  0  0  0  0  0  0  0  0  0  0  0
   56.0409  158.4603   -1.6149 C   0  0  0  0  0  0  0  0  0  0  0  0
   55.7853  159.9579   -1.7504 C   0  0  1  0  0  0  0  0  0  0  0  0
   55.2882  155.6865   -1.1252 C   0  0  0  0  0  0  0  0  0  0  0  0
   57.9060  160.5471   -0.8251 C   0  0  0  0  0  0  0  0  0  0  0  0
   56.7029  162.1183   -2.1877 C   0  0  0  0  0  0  0  0  0  0  0  0
   54.9120  156.4552   -2.3825 C   0  0  2  0  0  0  0  0  0  0  0  0
   54.7937  157.8811   -2.1152 N   0  0  2  0  0  0  0  0  0  0  0  0
   52.6036  154.9496   -4.8613 N   0  0  0  0  0  0  0  0  0  0  0  0
   53.7124  155.4717   -4.2277 N   0  0  0  0  0  0  0  0  0  0  0  0
   56.9970  160.7008   -1.9635 N   0  0  0  0  0  0  0  0  0  0  0  0
   52.5365  155.9870   -2.2925 O   0  0  0  0  0  0  0  0  0  0  0  0
   55.1982  160.6476   -3.7626 H   0  0  0  0  0  0  0  0  0  0  0  0
   53.8931  160.6039   -2.5733 H   0  0  0  0  0  0  0  0  0  0  0  0
   53.4316  158.5391   -3.6168 H   0  0  0  0  0  0  0  0  0  0  0  0
   55.1148  158.3575   -4.1657 H   0  0  0  0  0  0  0  0  0  0  0  0
   56.8974  158.1465   -2.2271 H   0  0  0  0  0  0  0  0  0  0  0  0
   56.2394  158.1785   -0.5753 H   0  0  0  0  0  0  0  0  0  0  0  0
   55.3009  160.3278   -0.8419 H   0  0  0  0  0  0  0  0  0  0  0  0
   54.5200  155.7901   -0.3519 H   0  0  0  0  0  0  0  0  0  0  0  0
   55.4118  154.6202   -1.3424 H   0  0  0  0  0  0  0  0  0  0  0  0
   56.2320  156.0518   -0.7044 H   0  0  0  0  0  0  0  0  0  0  0  0
   58.8235  161.1157   -0.9976 H   0  0  0  0  0  0  0  0  0  0  0  0
   58.1653  159.4938   -0.6880 H   0  0  0  0  0  0  0  0  0  0  0  0
   57.4317  160.9132    0.0894 H   0  0  0  0  0  0  0  0  0  0  0  0
   57.6307  162.6736   -2.3485 H   0  0  0  0  0  0  0  0  0  0  0  0
   56.1868  162.5391   -1.3205 H   0  0  0  0  0  0  0  0  0  0  0  0
   56.0645  162.2375   -3.0673 H   0  0  0  0  0  0  0  0  0  0  0  0
   55.6919  156.3392   -3.1430 H   0  0  0  0  0  0  0  0  0  0  0  0
   52.7027  155.1624   -5.8531 H   0  0  0  0  0  0  0  0  0  0  0  0
   51.7988  155.4850   -4.5381 H   0  0  0  0  0  0  0  0  0  0  0  0
   54.5945  155.4763   -4.7302 H   0  0  0  0  0  0  0  0  0  0  0  0
  1  9  1  0  0  0  0
  1 12  1  0  0  0  0
  1 14  2  0  0  0  0
  2  3  1  0  0  0  0
  2  5  1  0  0  0  0
  3 10  1  0  0  0  0
  4  5  1  0  0  0  0
  4 10  1  0  0  0  0
  5 13  1  0  0  0  0
  6  9  1  0  0  0  0
  7 13  1  0  0  0  0
  8 13  1  0  0  0  0
  9 10  1  0  0  0  0
 11 12  1  0  0  0  0
  2 15  1  0  0  0  0
  2 16  1  0  0  0  0
  3 17  1  0  0  0  0
  3 18  1  0  0  0  0
  4 19  1  0  0  0  0
  4 20  1  0  0  0  0
  5 21  1  0  0  0  0
  6 22  1  0  0  0  0
  6 23  1  0  0  0  0
  6 24  1  0  0  0  0
  7 25  1  0  0  0  0
  7 26  1  0  0  0  0
  7 27  1  0  0  0  0
  8 28  1  0  0  0  0
  8 29  1  0  0  0  0
  8 30  1  0  0  0  0
  9 31  1  0  0  0  0
 11 32  1  0  0  0  0
 11 33  1  0  0  0  0
 12 34  1  0  0  0  0
M  END
> <FRED Chemgauss4 score>
-5.482808

$$$$
C19260305	P28485389
  -OEChem-05122015083D

 25 25  0     1  0  0  0  0  0999 V2000
   56.5518  156.2945   -5.9181 C   0  0  0  0  0  0  0  0  0  0  0  0
   57.3376  155.0043   -5.9345 C   0  0  0  0  0  0  0  0  0  0  0  0
   56.3870  154.0219   -6.6081 C   0  0  0  0  0  0  0  0  0  0  0  0
   55.0101  154.5346   -6.2363 C   0  0  0  0  0  0  0  0  0  0  0  0
   54.1009  156.8812   -6.0555 C   0  0  0  0  0  0  0  0  0  0  0  0
   53.8125  156.6819   -3.5311 C   0  0  0  0  0  0  0  0  0  0  0  0
   54.0066  157.6222   -4.7210 C   0  0  2  0  0  0  0  0  0  0  0  0
   55.2137  155.9582   -6.1097 N   0  0  0  0  0  0  0  0  0  0  0  0
   54.1989  157.3478   -2.3066 N   0  0  0  0  0  0  0  0  0  0  0  0
   57.0339  157.4001   -5.7225 O   0  0  0  0  0  0  0  0  0  0  0  0
   52.9120  158.5376   -4.7642 O   0  0  0  0  0  0  0  0  0  0  0  0
   58.2688  155.1186   -6.4944 H   0  0  0  0  0  0  0  0  0  0  0  0
   57.5521  154.7099   -4.9024 H   0  0  0  0  0  0  0  0  0  0  0  0
   56.5208  154.0742   -7.6960 H   0  0  0  0  0  0  0  0  0  0  0  0
   56.5533  152.9862   -6.2991 H   0  0  0  0  0  0  0  0  0  0  0  0
   54.2654  154.3167   -7.0070 H   0  0  0  0  0  0  0  0  0  0  0  0
   54.6752  154.1457   -5.2693 H   0  0  0  0  0  0  0  0  0  0  0  0
   53.1892  156.3067   -6.2474 H   0  0  0  0  0  0  0  0  0  0  0  0
   54.2449  157.5893   -6.8778 H   0  0  0  0  0  0  0  0  0  0  0  0
   54.4241  155.7799   -3.6372 H   0  0  0  0  0  0  0  0  0  0  0  0
   52.7629  156.3820   -3.4471 H   0  0  0  0  0  0  0  0  0  0  0  0
   54.9194  158.2143   -4.5821 H   0  0  0  0  0  0  0  0  0  0  0  0
   54.9977  157.9553   -2.3185 H   0  0  0  0  0  0  0  0  0  0  0  0
   53.7969  157.0379   -1.4408 H   0  0  0  0  0  0  0  0  0  0  0  0
   53.0971  159.1517   -5.4906 H   0  0  0  0  0  0  0  0  0  0  0  0
  1  2  1  0  0  0  0
  1  8  1  0  0  0  0
  1 10  2  0  0  0  0
  2  3  1  0  0  0  0
  3  4  1  0  0  0  0
  4  8  1  0  0  0  0
  5  7  1  0  0  0  0
  5  8  1  0  0  0  0
  6  7  1  0  0  0  0
  6  9  1  0  0  0  0
  7 11  1  0  0  0  0
  2 12  1  0  0  0  0
  2 13  1  0  0  0  0
  3 14  1  0  0  0  0
  3 15  1  0  0  0  0
  4 16  1  0  0  0  0
  4 17  1  0  0  0  0
  5 18  1  0  0  0  0
  5 19  1  0  0  0  0
  6 20  1  0  0  0  0
  6 21  1  0  0  0  0
  7 22  1  0  0  0  0
  9 23  1  0  0  0  0
  9 24  1  0  0  0  0
 11 25  1  0  0  0  0
M  END
> <FRED Chemgauss4 score>
-5.479537

$$$$
C21519997	P59373064
  -OEChem-05122015083D

 28 28  0     1  0  0  0  0  0999 V2000
   56.0352  158.7076   -2.4823 C   0  0  0  0  0  0  0  0  0  0  0  0
   55.0863  156.9795   -3.1093 C   0  0  0  0  0  0  0  0  0  0  0  0
   56.9654  161.0493   -2.5511 C   0  0  0  0  0  0  0  0  0  0  0  0
   57.2663  159.6336   -0.4871 C   0  0  0  0  0  0  0  0  0  0  0  0
   53.5591  156.4746   -5.7492 C   0  0  0  0  0  0  0  0  0  0  0  0
   56.3448  159.9108   -1.7021 C   0  0  0  0  0  0  0  0  0  0  0  0
   54.2146  155.7572   -3.3625 C   0  0  2  0  0  0  0  0  0  0  0  0
   53.0720  156.0747   -4.3579 C   0  0  2  0  0  0  0  0  0  0  0  0
   54.9807  157.8958   -2.1803 N   0  0  0  0  0  0  0  0  0  0  0  0
   56.7697  158.3381   -3.5358 N   0  0  0  0  0  0  0  0  0  0  0  0
   53.7032  155.2265   -2.0940 N   0  0  0  0  0  0  0  0  0  0  0  0
   56.1281  157.1680   -3.9610 O   0  0  0  0  0  0  0  0  0  0  0  0
   52.2527  154.9110   -4.5147 O   0  0  0  0  0  0  0  0  0  0  0  0
   57.8927  160.7233   -3.0347 H   0  0  0  0  0  0  0  0  0  0  0  0
   57.1976  161.9358   -1.9509 H   0  0  0  0  0  0  0  0  0  0  0  0
   56.2665  161.3516   -3.3391 H   0  0  0  0  0  0  0  0  0  0  0  0
   58.2107  159.1938   -0.8267 H   0  0  0  0  0  0  0  0  0  0  0  0
   56.8120  158.9400    0.2289 H   0  0  0  0  0  0  0  0  0  0  0  0
   57.5027  160.5583    0.0507 H   0  0  0  0  0  0  0  0  0  0  0  0
   54.2137  155.7157   -6.1867 H   0  0  0  0  0  0  0  0  0  0  0  0
   54.0973  157.4283   -5.7168 H   0  0  0  0  0  0  0  0  0  0  0  0
   52.7072  156.6183   -6.4234 H   0  0  0  0  0  0  0  0  0  0  0  0
   55.4190  160.3522   -1.2642 H   0  0  0  0  0  0  0  0  0  0  0  0
   54.8454  154.9781   -3.8112 H   0  0  0  0  0  0  0  0  0  0  0  0
   52.4239  156.8709   -3.9743 H   0  0  0  0  0  0  0  0  0  0  0  0
   54.2891  155.2954   -1.2943 H   0  0  0  0  0  0  0  0  0  0  0  0
   52.8962  154.6473   -2.1271 H   0  0  0  0  0  0  0  0  0  0  0  0
   51.5233  155.1711   -5.0953 H   0  0  0  0  0  0  0  0  0  0  0  0
  1  6  1  0  0  0  0
  1  9  1  0  0  0  0
  1 10  2  0  0  0  0
  2  7  1  0  0  0  0
  2  9  2  0  0  0  0
  2 12  1  0  0  0  0
  3  6  1  0  0  0  0
  4  6  1  0  0  0  0
  5  8  1  0  0  0  0
  7  8  1  0  0  0  0
  7 11  1  0  0  0  0
  8 13  1  0  0  0  0
 10 12  1  0  0  0  0
  3 14  1  0  0  0  0
  3 15  1  0  0  0  0
  3 16  1  0  0  0  0
  4 17  1  0  0  0  0
  4 18  1  0  0  0  0
  4 19  1  0  0  0  0
  5 20  1  0  0  0  0
  5 21  1  0  0  0  0
  5 22  1  0  0  0  0
  6 23  1  0  0  0  0
  7 24  1  0  0  0  0
  8 25  1  0  0  0  0
 11 26  1  0  0  0  0
 11 27  1  0  0  0  0
 13 28  1  0  0  0  0
M  END
> <FRED Chemgauss4 score>
-5.478097

$$$$
C70294142	P108366885
  -OEChem-05122015083D

 41 42  0     1  0  0  0  0  0999 V2000
   57.4902  158.0520   -6.8586 C   0  0  0  0  0  0  0  0  0  0  0  0
   56.4274  156.3265   -5.5432 C   0  0  0  0  0  0  0  0  0  0  0  0
   58.2838  157.0885   -7.4812 C   0  0  0  0  0  0  0  0  0  0  0  0
   57.2209  155.3630   -6.1658 C   0  0  0  0  0  0  0  0  0  0  0  0
   56.5620  157.6710   -5.8895 C   0  0  0  0  0  0  0  0  0  0  0  0
   58.1491  155.7441   -7.1348 C   0  0  0  0  0  0  0  0  0  0  0  0
   54.8189  158.2330   -3.0489 C   0  0  0  0  0  0  0  0  0  0  0  0
   53.8033  157.7470   -4.0576 C   0  0  0  0  0  0  0  0  0  0  0  0
   55.7004  158.7197   -5.2111 C   0  0  1  0  0  0  0  0  0  0  0  0
   54.1771  158.5238   -5.3241 C   0  0  1  0  0  0  0  0  0  0  0  0
   56.9741  159.2549   -1.6406 C   0  0  0  0  0  0  0  0  0  0  0  0
   58.3052  158.5613   -3.6494 C   0  0  0  0  0  0  0  0  0  0  0  0
   57.2049  160.8138   -3.5877 C   0  0  0  0  0  0  0  0  0  0  0  0
   60.0143  153.8437   -6.4847 C   0  0  0  0  0  0  0  0  0  0  0  0
   57.0799  159.3448   -3.1673 C   0  0  0  0  0  0  0  0  0  0  0  0
   55.8878  158.7751   -3.7646 N   0  0  0  0  0  0  0  0  0  0  0  0
   53.6898  157.8990   -6.5434 N   0  0  0  0  0  0  0  0  0  0  0  0
   54.7031  158.1167   -1.8378 O   0  0  0  0  0  0  0  0  0  0  0  0
   59.1628  154.5132   -7.9301 S   0  0  0  0  0  0  0  0  0  0  0  0
   57.6021  159.0971   -7.1346 H   0  0  0  0  0  0  0  0  0  0  0  0
   55.7072  156.0206   -4.7890 H   0  0  0  0  0  0  0  0  0  0  0  0
   59.0022  157.4051   -8.2337 H   0  0  0  0  0  0  0  0  0  0  0  0
   57.1016  154.3201   -5.8822 H   0  0  0  0  0  0  0  0  0  0  0  0
   53.9245  156.6647   -4.1753 H   0  0  0  0  0  0  0  0  0  0  0  0
   52.7861  157.9733   -3.7263 H   0  0  0  0  0  0  0  0  0  0  0  0
   55.9805  159.7196   -5.6431 H   0  0  0  0  0  0  0  0  0  0  0  0
   53.7098  159.5155   -5.2483 H   0  0  0  0  0  0  0  0  0  0  0  0
   56.1035  159.8088   -1.2704 H   0  0  0  0  0  0  0  0  0  0  0  0
   56.8777  158.2154   -1.3079 H   0  0  0  0  0  0  0  0  0  0  0  0
   57.8599  159.6834   -1.1573 H   0  0  0  0  0  0  0  0  0  0  0  0
   58.4022  158.6110   -4.7402 H   0  0  0  0  0  0  0  0  0  0  0  0
   58.2282  157.5016   -3.3793 H   0  0  0  0  0  0  0  0  0  0  0  0
   59.2287  158.9550   -3.2105 H   0  0  0  0  0  0  0  0  0  0  0  0
   57.2824  160.9077   -4.6771 H   0  0  0  0  0  0  0  0  0  0  0  0
   56.3381  161.3979   -3.2593 H   0  0  0  0  0  0  0  0  0  0  0  0
   58.1027  161.2736   -3.1584 H   0  0  0  0  0  0  0  0  0  0  0  0
   60.7003  153.0505   -6.7917 H   0  0  0  0  0  0  0  0  0  0  0  0
   59.2853  153.4322   -5.7821 H   0  0  0  0  0  0  0  0  0  0  0  0
   60.5817  154.6349   -5.9886 H   0  0  0  0  0  0  0  0  0  0  0  0
   54.1401  158.1258   -7.4071 H   0  0  0  0  0  0  0  0  0  0  0  0
   52.8069  157.4296   -6.5174 H   0  0  0  0  0  0  0  0  0  0  0  0
  1  3  2  0  0  0  0
  1  5  1  0  0  0  0
  2  4  1  0  0  0  0
  2  5  2  0  0  0  0
  3  6  1  0  0  0  0
  4  6  2  0  0  0  0
  5  9  1  0  0  0  0
  6 19  1  0  0  0  0
  7  8  1  0  0  0  0
  7 16  1  0  0  0  0
  7 18  2  0  0  0  0
  8 10  1  0  0  0  0
  9 10  1  0  0  0  0
  9 16  1  0  0  0  0
 10 17  1  0  0  0  0
 11 15  1  0  0  0  0
 12 15  1  0  0  0  0
 13 15  1  0  0  0  0
 14 19  1  0  0  0  0
 15 16  1  0  0  0  0
  1 20  1  0  0  0  0
  2 21  1  0  0  0  0
  3 22  1  0  0  0  0
  4 23  1  0  0  0  0
  8 24  1  0  0  0  0
  8 25  1  0  0  0  0
  9 26  1  0  0  0  0
 10 27  1  0  0  0  0
 11 28  1  0  0  0  0
 11 29  1  0  0  0  0
 11 30  1  0  0  0  0
 12 31  1  0  0  0  0
 12 32  1  0  0  0  0
 12 33  1  0  0  0  0
 13 34  1  0  0  0  0
 13 35  1  0  0  0  0
 13 36  1  0  0  0  0
 14 37  1  0  0  0  0
 14 38  1  0  0  0  0
 14 39  1  0  0  0  0
 17 40  1  0  0  0  0
 17 41  1  0  0  0  0
M  END
> <FRED Chemgauss4 score>
-5.477293

$$$$
C84991573	P133024479
  -OEChem-05122015083D

 28 28  0     1  0  0  0  0  0999 V2000
   59.4348  154.1305   -7.2935 C   0  0  0  0  0  0  0  0  0  0  0  0
   57.9873  153.7752   -7.5234 C   0  0  0  0  0  0  0  0  0  0  0  0
   59.3201  155.4430   -6.5477 C   0  0  0  0  0  0  0  0  0  0  0  0
   57.3521  154.2373   -6.2234 C   0  0  2  0  0  0  0  0  0  0  0  0
   55.8823  154.5846   -6.3581 C   0  0  0  0  0  0  0  0  0  0  0  0
   55.2828  155.0116   -5.0147 C   0  0  0  0  0  0  0  0  0  0  0  0
   53.2202  155.7564   -3.7691 C   0  0  0  0  0  0  0  0  0  0  0  0
   53.8032  155.3957   -5.1365 C   0  0  2  0  0  0  0  0  0  0  0  0
   53.9391  156.8720   -3.1948 N   0  0  0  0  0  0  0  0  0  0  0  0
   58.0916  155.3975   -5.8066 O   0  0  0  0  0  0  0  0  0  0  0  0
   53.0916  154.2800   -5.6702 O   0  0  0  0  0  0  0  0  0  0  0  0
   59.9059  153.3757   -6.6527 H   0  0  0  0  0  0  0  0  0  0  0  0
   60.0201  154.2115   -8.2130 H   0  0  0  0  0  0  0  0  0  0  0  0
   57.5998  154.3457   -8.3762 H   0  0  0  0  0  0  0  0  0  0  0  0
   57.8270  152.7117   -7.7206 H   0  0  0  0  0  0  0  0  0  0  0  0
   60.1570  155.6121   -5.8643 H   0  0  0  0  0  0  0  0  0  0  0  0
   59.2589  156.2884   -7.2412 H   0  0  0  0  0  0  0  0  0  0  0  0
   57.4835  153.4745   -5.4459 H   0  0  0  0  0  0  0  0  0  0  0  0
   55.7706  155.3946   -7.0882 H   0  0  0  0  0  0  0  0  0  0  0  0
   55.3465  153.7142   -6.7534 H   0  0  0  0  0  0  0  0  0  0  0  0
   55.3893  154.1816   -4.3044 H   0  0  0  0  0  0  0  0  0  0  0  0
   55.8521  155.8610   -4.6180 H   0  0  0  0  0  0  0  0  0  0  0  0
   52.1637  156.0306   -3.8567 H   0  0  0  0  0  0  0  0  0  0  0  0
   53.3001  154.9075   -3.0822 H   0  0  0  0  0  0  0  0  0  0  0  0
   53.6955  156.2330   -5.8367 H   0  0  0  0  0  0  0  0  0  0  0  0
   53.9434  156.9822   -2.1971 H   0  0  0  0  0  0  0  0  0  0  0  0
   54.2405  157.6150   -3.7987 H   0  0  0  0  0  0  0  0  0  0  0  0
   53.2181  153.5496   -5.0458 H   0  0  0  0  0  0  0  0  0  0  0  0
  1  2  1  0  0  0  0
  1  3  1  0  0  0  0
  2  4  1  0  0  0  0
  3 10  1  0  0  0  0
  4  5  1  0  0  0  0
  4 10  1  0  0  0  0
  5  6  1  0  0  0  0
  6  8  1  0  0  0  0
  7  8  1  0  0  0  0
  7  9  1  0  0  0  0
  8 11  1  0  0  0  0
  1 12  1  0  0  0  0
  1 13  1  0  0  0  0
  2 14  1  0  0  0  0
  2 15  1  0  0  0  0
  3 16  1  0  0  0  0
  3 17  1  0  0  0  0
  4 18  1  0  0  0  0
  5 19  1  0  0  0  0
  5 20  1  0  0  0  0
  6 21  1  0  0  0  0
  6 22  1  0  0  0  0
  7 23  1  0  0  0  0
  7 24  1  0  0  0  0
  8 25  1  0  0  0  0
  9 26  1  0  0  0  0
  9 27  1  0  0  0  0
 11 28  1  0  0  0  0
M  END
> <FRED Chemgauss4 score>
-5.464339

$$$$
C76576824	P119452343
  -OEChem-05122015083D

 25 25  0     1  0  0  0  0  0999 V2000
   57.8059  153.8155   -7.3635 C   0  0  0  0  0  0  0  0  0  0  0  0
   56.4242  153.2858   -7.0729 C   0  0  0  0  0  0  0  0  0  0  0  0
   58.0224  154.7739   -6.2115 C   0  0  0  0  0  0  0  0  0  0  0  0
   55.7287  154.5285   -6.5445 C   0  0  1  0  0  0  0  0  0  0  0  0
   54.5669  154.2245   -5.6187 C   0  0  0  0  0  0  0  0  0  0  0  0
   53.0237  155.2828   -3.8761 C   0  0  0  0  0  0  0  0  0  0  0  0
   53.8662  155.4991   -5.1353 C   0  0  2  0  0  0  0  0  0  0  0  0
   53.8415  155.3080   -2.6852 N   0  0  0  0  0  0  0  0  0  0  0  0
   56.7315  155.2794   -5.8391 O   0  0  0  0  0  0  0  0  0  0  0  0
   53.0384  156.0084   -6.1790 O   0  0  0  0  0  0  0  0  0  0  0  0
   58.5725  153.0385   -7.4224 H   0  0  0  0  0  0  0  0  0  0  0  0
   57.8017  154.3654   -8.3122 H   0  0  0  0  0  0  0  0  0  0  0  0
   55.9281  152.8613   -7.9500 H   0  0  0  0  0  0  0  0  0  0  0  0
   56.4832  152.5088   -6.3010 H   0  0  0  0  0  0  0  0  0  0  0  0
   58.4413  154.2582   -5.3409 H   0  0  0  0  0  0  0  0  0  0  0  0
   58.6820  155.6053   -6.4754 H   0  0  0  0  0  0  0  0  0  0  0  0
   55.3861  155.1534   -7.3789 H   0  0  0  0  0  0  0  0  0  0  0  0
   54.9587  153.6589   -4.7651 H   0  0  0  0  0  0  0  0  0  0  0  0
   53.8512  153.5827   -6.1455 H   0  0  0  0  0  0  0  0  0  0  0  0
   52.4970  154.3244   -3.9313 H   0  0  0  0  0  0  0  0  0  0  0  0
   52.2715  156.0743   -3.7902 H   0  0  0  0  0  0  0  0  0  0  0  0
   54.6227  156.2634   -4.9199 H   0  0  0  0  0  0  0  0  0  0  0  0
   54.7503  154.8814   -2.7124 H   0  0  0  0  0  0  0  0  0  0  0  0
   53.4169  155.5623   -1.8112 H   0  0  0  0  0  0  0  0  0  0  0  0
   53.6246  156.1970   -6.9279 H   0  0  0  0  0  0  0  0  0  0  0  0
  1  2  1  0  0  0  0
  1  3  1  0  0  0  0
  2  4  1  0  0  0  0
  3  9  1  0  0  0  0
  4  5  1  0  0  0  0
  4  9  1  0  0  0  0
  5  7  1  0  0  0  0
  6  7  1  0  0  0  0
  6  8  1  0  0  0  0
  7 10  1  0  0  0  0
  1 11  1  0  0  0  0
  1 12  1  0  0  0  0
  2 13  1  0  0  0  0
  2 14  1  0  0  0  0
  3 15  1  0  0  0  0
  3 16  1  0  0  0  0
  4 17  1  0  0  0  0
  5 18  1  0  0  0  0
  5 19  1  0  0  0  0
  6 20  1  0  0  0  0
  6 21  1  0  0  0  0
  7 22  1  0  0  0  0
  8 23  1  0  0  0  0
  8 24  1  0  0  0  0
 10 25  1  0  0  0  0
M  END
> <FRED Chemgauss4 score>
-5.462920

$$$$
C88067871	P137751168
  -OEChem-05122015083D

 26 26  0     1  0  0  0  0  0999 V2000
   57.6193  159.7400   -0.9677 C   0  0  0  0  0  0  0  0  0  0  0  0
   56.3359  159.3066   -0.7045 C   0  0  0  0  0  0  0  0  0  0  0  0
   58.0825  159.4942   -2.2441 C   0  0  0  0  0  0  0  0  0  0  0  0
   56.1210  158.4995   -2.8187 C   0  0  0  0  0  0  0  0  0  0  0  0
   54.9540  154.1000   -5.5619 C   0  0  0  0  0  0  0  0  0  0  0  0
   55.2833  157.8060   -3.8535 C   0  0  0  0  0  0  0  0  0  0  0  0
   53.2099  155.9606   -5.4571 C   0  0  0  0  0  0  0  0  0  0  0  0
   54.6795  155.5713   -5.2604 C   0  0  1  0  0  0  0  0  0  0  0  0
   55.5557  158.6805   -1.6099 N   0  0  0  0  0  0  0  0  0  0  0  0
   57.3577  158.8740   -3.1982 N   0  0  0  0  0  0  0  0  0  0  0  0
   53.0491  157.4044   -5.5955 N   0  0  0  0  0  0  0  0  0  0  0  0
   53.9418  155.7778   -2.6986 O   0  0  0  0  0  0  0  0  0  0  0  0
   55.1686  155.9537   -3.5292 S   0  0  2  0  0  0  0  0  0  0  0  0
   58.2229  160.2398   -0.2220 H   0  0  0  0  0  0  0  0  0  0  0  0
   55.8859  159.4553    0.2713 H   0  0  0  0  0  0  0  0  0  0  0  0
   59.0797  159.7985   -2.5439 H   0  0  0  0  0  0  0  0  0  0  0  0
   54.3304  153.4416   -4.9470 H   0  0  0  0  0  0  0  0  0  0  0  0
   54.7569  153.8672   -6.6133 H   0  0  0  0  0  0  0  0  0  0  0  0
   56.0007  153.8454   -5.3618 H   0  0  0  0  0  0  0  0  0  0  0  0
   54.2651  158.2094   -3.8599 H   0  0  0  0  0  0  0  0  0  0  0  0
   55.6977  157.9527   -4.8566 H   0  0  0  0  0  0  0  0  0  0  0  0
   52.7996  155.4714   -6.3484 H   0  0  0  0  0  0  0  0  0  0  0  0
   52.6116  155.6224   -4.6028 H   0  0  0  0  0  0  0  0  0  0  0  0
   55.3202  156.1968   -5.8930 H   0  0  0  0  0  0  0  0  0  0  0  0
   52.1712  157.8059   -5.3445 H   0  0  0  0  0  0  0  0  0  0  0  0
   53.7346  157.9056   -6.1189 H   0  0  0  0  0  0  0  0  0  0  0  0
  1  2  1  0  0  0  0
  1  3  2  0  0  0  0
  2  9  2  0  0  0  0
  3 10  1  0  0  0  0
  4  6  1  0  0  0  0
  4  9  1  0  0  0  0
  4 10  2  0  0  0  0
  5  8  1  0  0  0  0
  6 13  1  0  0  0  0
  7  8  1  0  0  0  0
  7 11  1  0  0  0  0
  8 13  1  0  0  0  0
 12 13  2  0  0  0  0
  1 14  1  0  0  0  0
  2 15  1  0  0  0  0
  3 16  1  0  0  0  0
  5 17  1  0  0  0  0
  5 18  1  0  0  0  0
  5 19  1  0  0  0  0
  6 20  1  0  0  0  0
  6 21  1  0  0  0  0
  7 22  1  0  0  0  0
  7 23  1  0  0  0  0
  8 24  1  0  0  0  0
 11 25  1  0  0  0  0
 11 26  1  0  0  0  0
M  END
> <FRED Chemgauss4 score>
-5.462764

$$$$
C35329488	P52423136
  -OEChem-05122015083D

 43 44  0     1  0  0  0  0  0999 V2000
   57.5320  157.2506   -5.4593 C   0  0  0  0  0  0  0  0  0  0  0  0
   57.2836  156.0162   -6.0594 C   0  0  0  0  0  0  0  0  0  0  0  0
   55.1000  155.9539   -5.0274 C   0  0  0  0  0  0  0  0  0  0  0  0
   56.5644  157.8367   -4.6432 C   0  0  0  0  0  0  0  0  0  0  0  0
   55.3484  157.1883   -4.4273 C   0  0  0  0  0  0  0  0  0  0  0  0
   56.0676  155.3679   -5.8435 C   0  0  0  0  0  0  0  0  0  0  0  0
   58.2956  161.0368   -0.9693 C   0  0  0  0  0  0  0  0  0  0  0  0
   58.7523  160.2148   -2.1696 C   0  0  0  0  0  0  0  0  0  0  0  0
   57.5194  162.2029   -1.5581 C   0  0  0  0  0  0  0  0  0  0  0  0
   58.2040  160.9494   -3.3949 C   0  0  1  0  0  0  0  0  0  0  0  0
   55.4478  163.4915   -3.0932 C   0  0  0  0  0  0  0  0  0  0  0  0
   55.0070  154.2345   -8.1553 C   0  0  0  0  0  0  0  0  0  0  0  0
   57.8285  159.9839   -4.5118 C   0  0  0  0  0  0  0  0  0  0  0  0
   56.5830  162.7526   -3.7160 C   0  0  0  0  0  0  0  0  0  0  0  0
   57.0544  161.6819   -2.8459 N   0  0  2  0  0  0  0  0  0  0  0  0
   54.3547  157.7641   -3.6044 N   0  0  0  0  0  0  0  0  0  0  0  0
   56.8337  159.0724   -4.0521 N   0  0  0  0  0  0  0  0  0  0  0  0
   57.0391  153.1908   -6.8686 O   0  0  0  0  0  0  0  0  0  0  0  0
   54.7516  153.1128   -5.8164 O   0  0  0  0  0  0  0  0  0  0  0  0
   55.7564  153.8232   -6.5956 S   0  0  0  0  0  0  0  0  0  0  0  0
   58.4834  157.7463   -5.6347 H   0  0  0  0  0  0  0  0  0  0  0  0
   58.0446  155.5683   -6.6927 H   0  0  0  0  0  0  0  0  0  0  0  0
   54.1520  155.4476   -4.8595 H   0  0  0  0  0  0  0  0  0  0  0  0
   57.6502  160.4260   -0.3270 H   0  0  0  0  0  0  0  0  0  0  0  0
   59.1415  161.3795   -0.3648 H   0  0  0  0  0  0  0  0  0  0  0  0
   59.8446  160.1446   -2.2087 H   0  0  0  0  0  0  0  0  0  0  0  0
   58.3568  159.1951   -2.0875 H   0  0  0  0  0  0  0  0  0  0  0  0
   56.6888  162.5008   -0.9103 H   0  0  0  0  0  0  0  0  0  0  0  0
   58.1877  163.0642   -1.6871 H   0  0  0  0  0  0  0  0  0  0  0  0
   58.9708  161.6474   -3.7589 H   0  0  0  0  0  0  0  0  0  0  0  0
   54.6017  162.8216   -2.9052 H   0  0  0  0  0  0  0  0  0  0  0  0
   55.7557  163.9574   -2.1508 H   0  0  0  0  0  0  0  0  0  0  0  0
   55.1066  164.2856   -3.7681 H   0  0  0  0  0  0  0  0  0  0  0  0
   54.7832  153.3072   -8.6850 H   0  0  0  0  0  0  0  0  0  0  0  0
   54.0909  154.7941   -7.9602 H   0  0  0  0  0  0  0  0  0  0  0  0
   55.7115  154.8409   -8.7265 H   0  0  0  0  0  0  0  0  0  0  0  0
   58.7107  159.4292   -4.8075 H   0  0  0  0  0  0  0  0  0  0  0  0
   57.4362  160.5456   -5.3504 H   0  0  0  0  0  0  0  0  0  0  0  0
   57.4243  163.4273   -3.9009 H   0  0  0  0  0  0  0  0  0  0  0  0
   56.2782  162.3011   -4.6648 H   0  0  0  0  0  0  0  0  0  0  0  0
   53.4763  157.2991   -3.5063 H   0  0  0  0  0  0  0  0  0  0  0  0
   54.5135  158.6692   -3.2129 H   0  0  0  0  0  0  0  0  0  0  0  0
   56.2711  159.3229   -3.2357 H   0  0  0  0  0  0  0  0  0  0  0  0
  1  2  2  0  0  0  0
  1  4  1  0  0  0  0
  2  6  1  0  0  0  0
  3  5  1  0  0  0  0
  3  6  2  0  0  0  0
  4  5  2  0  0  0  0
  4 17  1  0  0  0  0
  5 16  1  0  0  0  0
  6 20  1  0  0  0  0
  7  8  1  0  0  0  0
  7  9  1  0  0  0  0
  8 10  1  0  0  0  0
  9 15  1  0  0  0  0
 10 13  1  0  0  0  0
 10 15  1  0  0  0  0
 11 14  1  0  0  0  0
 12 20  1  0  0  0  0
 13 17  1  0  0  0  0
 14 15  1  0  0  0  0
 18 20  2  0  0  0  0
 19 20  2  0  0  0  0
  1 21  1  0  0  0  0
  2 22  1  0  0  0  0
  3 23  1  0  0  0  0
  7 24  1  0  0  0  0
  7 25  1  0  0  0  0
  8 26  1  0  0  0  0
  8 27  1  0  0  0  0
  9 28  1  0  0  0  0
  9 29  1  0  0  0  0
 10 30  1  0  0  0  0
 11 31  1  0  0  0  0
 11 32  1  0  0  0  0
 11 33  1  0  0  0  0
 12 34  1  0  0  0  0
 12 35  1  0  0  0  0
 12 36  1  0  0  0  0
 13 37  1  0  0  0  0
 13 38  1  0  0  0  0
 14 39  1  0  0  0  0
 14 40  1  0  0  0  0
 16 41  1  0  0  0  0
 16 42  1  0  0  0  0
 17 43  1  0  0  0  0
M  END
> <FRED Chemgauss4 score>
-5.461879

$$$$
C44464318	P129259292
  -OEChem-05122015083D

 20 20  0     1  0  0  0  0  0999 V2000
   57.6098  156.2551   -5.9463 C   0  0  0  0  0  0  0  0  0  0  0  0
   57.6183  154.8938   -6.1677 C   0  0  0  0  0  0  0  0  0  0  0  0
   55.4464  155.8989   -5.8938 C   0  0  0  0  0  0  0  0  0  0  0  0
   53.9606  156.1448   -5.7780 C   0  0  0  0  0  0  0  0  0  0  0  0
   53.8894  155.6245   -3.3124 C   0  0  0  0  0  0  0  0  0  0  0  0
   53.2933  155.2980   -4.6828 C   0  0  1  0  0  0  0  0  0  0  0  0
   56.3652  156.8332   -5.7895 N   0  0  0  0  0  0  0  0  0  0  0  0
   51.8625  155.5212   -4.6595 N   0  0  0  0  0  0  0  0  0  0  0  0
   53.7112  157.0092   -3.0367 O   0  0  0  0  0  0  0  0  0  0  0  0
   56.0083  154.3029   -6.1801 S   0  0  0  0  0  0  0  0  0  0  0  0
   58.4916  156.8790   -5.8892 H   0  0  0  0  0  0  0  0  0  0  0  0
   58.4658  154.2397   -6.3155 H   0  0  0  0  0  0  0  0  0  0  0  0
   53.7777  157.2121   -5.5957 H   0  0  0  0  0  0  0  0  0  0  0  0
   53.5050  155.9249   -6.7526 H   0  0  0  0  0  0  0  0  0  0  0  0
   54.9646  155.4179   -3.2984 H   0  0  0  0  0  0  0  0  0  0  0  0
   53.4070  155.0466   -2.5166 H   0  0  0  0  0  0  0  0  0  0  0  0
   53.4252  154.2282   -4.8846 H   0  0  0  0  0  0  0  0  0  0  0  0
   51.3598  155.3323   -3.8127 H   0  0  0  0  0  0  0  0  0  0  0  0
   51.3829  155.6589   -5.5293 H   0  0  0  0  0  0  0  0  0  0  0  0
   54.1016  157.1715   -2.1632 H   0  0  0  0  0  0  0  0  0  0  0  0
  1  2  2  0  0  0  0
  1  7  1  0  0  0  0
  2 10  1  0  0  0  0
  3  4  1  0  0  0  0
  3  7  2  0  0  0  0
  3 10  1  0  0  0  0
  4  6  1  0  0  0  0
  5  6  1  0  0  0  0
  5  9  1  0  0  0  0
  6  8  1  0  0  0  0
  1 11  1  0  0  0  0
  2 12  1  0  0  0  0
  4 13  1  0  0  0  0
  4 14  1  0  0  0  0
  5 15  1  0  0  0  0
  5 16  1  0  0  0  0
  6 17  1  0  0  0  0
  8 18  1  0  0  0  0
  8 19  1  0  0  0  0
  9 20  1  0  0  0  0
M  END
> <FRED Chemgauss4 score>
-5.454947

$$$$
C94464663	P148063757
  -OEChem-05122015083D

 44 45  0     1  0  0  0  0  0999 V2000
   54.3916  158.6784   -4.4537 C   0  0  0  0  0  0  0  0  0  0  0  0
   59.3610  153.3718   -7.0665 C   0  0  0  0  0  0  0  0  0  0  0  0
   59.7817  154.6436   -6.3215 C   0  0  0  0  0  0  0  0  0  0  0  0
   57.8458  153.4854   -7.2526 C   0  0  0  0  0  0  0  0  0  0  0  0
   58.3983  156.5830   -5.3219 C   0  0  0  0  0  0  0  0  0  0  0  0
   56.1843  155.1524   -6.5127 C   0  0  0  0  0  0  0  0  0  0  0  0
   58.5514  155.5286   -6.4118 C   0  0  2  0  0  0  0  0  0  0  0  0
   55.9568  156.2465   -5.4367 C   0  0  1  0  0  0  0  0  0  0  0  0
   55.6837  155.6056   -4.0646 C   0  0  0  0  0  0  0  0  0  0  0  0
   55.8067  159.6795   -6.3236 C   0  0  0  0  0  0  0  0  0  0  0  0
   54.8820  161.4353   -4.2846 C   0  0  0  0  0  0  0  0  0  0  0  0
   56.9159  158.3055   -4.4897 C   0  0  0  0  0  0  0  0  0  0  0  0
   55.7596  159.2722   -4.8436 C   0  0  2  0  0  0  0  0  0  0  0  0
   57.4855  154.5317   -6.3064 N   0  0  2  0  0  0  0  0  0  0  0  0
   57.0756  157.2178   -5.4487 N   0  0  1  0  0  0  0  0  0  0  0  0
   53.4713  158.6184   -5.4784 N   0  0  0  0  0  0  0  0  0  0  0  0
   55.9387  160.4763   -4.0183 N   0  0  0  0  0  0  0  0  0  0  0  0
   54.1243  158.3026   -3.3125 O   0  0  0  0  0  0  0  0  0  0  0  0
   59.8649  153.2985   -8.0364 H   0  0  0  0  0  0  0  0  0  0  0  0
   59.6267  152.4861   -6.4789 H   0  0  0  0  0  0  0  0  0  0  0  0
   60.0285  154.3994   -5.2810 H   0  0  0  0  0  0  0  0  0  0  0  0
   60.6616  155.1088   -6.7768 H   0  0  0  0  0  0  0  0  0  0  0  0
   57.6184  153.7719   -8.2869 H   0  0  0  0  0  0  0  0  0  0  0  0
   57.3403  152.5400   -7.0332 H   0  0  0  0  0  0  0  0  0  0  0  0
   58.5321  156.1430   -4.3254 H   0  0  0  0  0  0  0  0  0  0  0  0
   59.1869  157.3348   -5.4500 H   0  0  0  0  0  0  0  0  0  0  0  0
   55.3920  154.3972   -6.4442 H   0  0  0  0  0  0  0  0  0  0  0  0
   56.1160  155.6008   -7.5132 H   0  0  0  0  0  0  0  0  0  0  0  0
   58.5332  156.0158   -7.3990 H   0  0  0  0  0  0  0  0  0  0  0  0
   55.0458  156.7856   -5.7289 H   0  0  0  0  0  0  0  0  0  0  0  0
   56.5654  155.0620   -3.7420 H   0  0  0  0  0  0  0  0  0  0  0  0
   54.8443  154.9235   -4.1492 H   0  0  0  0  0  0  0  0  0  0  0  0
   55.4511  156.3845   -3.3460 H   0  0  0  0  0  0  0  0  0  0  0  0
   56.7833  160.1000   -6.5890 H   0  0  0  0  0  0  0  0  0  0  0  0
   55.6404  158.8290   -6.9948 H   0  0  0  0  0  0  0  0  0  0  0  0
   55.0383  160.4260   -6.5557 H   0  0  0  0  0  0  0  0  0  0  0  0
   54.9011  161.7330   -5.3362 H   0  0  0  0  0  0  0  0  0  0  0  0
   55.0147  162.3259   -3.6643 H   0  0  0  0  0  0  0  0  0  0  0  0
   53.9067  160.9948   -4.0612 H   0  0  0  0  0  0  0  0  0  0  0  0
   57.8645  158.8546   -4.4342 H   0  0  0  0  0  0  0  0  0  0  0  0
   56.7499  157.8603   -3.5005 H   0  0  0  0  0  0  0  0  0  0  0  0
   53.7252  158.9530   -6.4015 H   0  0  0  0  0  0  0  0  0  0  0  0
   52.5424  158.2428   -5.3182 H   0  0  0  0  0  0  0  0  0  0  0  0
   55.9177  160.2025   -3.0410 H   0  0  0  0  0  0  0  0  0  0  0  0
  1 13  1  0  0  0  0
  1 16  1  0  0  0  0
  1 18  2  0  0  0  0
  2  3  1  0  0  0  0
  2  4  1  0  0  0  0
  3  7  1  0  0  0  0
  4 14  1  0  0  0  0
  5  7  1  0  0  0  0
  5 15  1  0  0  0  0
  6  8  1  0  0  0  0
  6 14  1  0  0  0  0
  7 14  1  0  0  0  0
  8  9  1  0  0  0  0
  8 15  1  0  0  0  0
 10 13  1  0  0  0  0
 11 17  1  0  0  0  0
 12 13  1  0  0  0  0
 12 15  1  0  0  0  0
 13 17  1  0  0  0  0
  2 19  1  0  0  0  0
  2 20  1  0  0  0  0
  3 21  1  0  0  0  0
  3 22  1  0  0  0  0
  4 23  1  0  0  0  0
  4 24  1  0  0  0  0
  5 25  1  0  0  0  0
  5 26  1  0  0  0  0
  6 27  1  0  0  0  0
  6 28  1  0  0  0  0
  7 29  1  0  0  0  0
  8 30  1  0  0  0  0
  9 31  1  0  0  0  0
  9 32  1  0  0  0  0
  9 33  1  0  0  0  0
 10 34  1  0  0  0  0
 10 35  1  0  0  0  0
 10 36  1  0  0  0  0
 11 37  1  0  0  0  0
 11 38  1  0  0  0  0
 11 39  1  0  0  0  0
 12 40  1  0  0  0  0
 12 41  1  0  0  0  0
 16 42  1  0  0  0  0
 16 43  1  0  0  0  0
 17 44  1  0  0  0  0
M  END
> <FRED Chemgauss4 score>
-5.453370

$$$$
C84328183	P131958380
  -OEChem-05122015083D

 21 21  0     1  0  0  0  0  0999 V2000
   54.6495  157.1797   -3.4144 C   0  0  0  0  0  0  0  0  0  0  0  0
   56.5913  153.1894   -7.2275 C   0  0  0  0  0  0  0  0  0  0  0  0
   56.5136  154.3067   -6.3622 C   0  0  0  0  0  0  0  0  0  0  0  0
   55.2993  152.7512   -7.4025 C   0  0  0  0  0  0  0  0  0  0  0  0
   55.1796  154.4718   -6.0703 C   0  0  0  0  0  0  0  0  0  0  0  0
   54.7066  151.6487   -8.1727 C   0  0  0  0  0  0  0  0  0  0  0  0
   55.3186  156.5240   -4.5491 C   0  0  0  0  0  0  0  0  0  0  0  0
   54.4208  155.4670   -5.2141 C   0  0  1  0  0  0  0  0  0  0  0  0
   54.1218  157.6982   -2.5206 N   0  0  0  0  0  0  0  0  0  0  0  0
   53.4221  156.1380   -6.0258 N   0  0  0  0  0  0  0  0  0  0  0  0
   54.4327  153.5276   -6.7005 O   0  0  0  0  0  0  0  0  0  0  0  0
   57.4796  152.7590   -7.6674 H   0  0  0  0  0  0  0  0  0  0  0  0
   57.3303  154.9140   -5.9987 H   0  0  0  0  0  0  0  0  0  0  0  0
   54.6448  150.7240   -7.5717 H   0  0  0  0  0  0  0  0  0  0  0  0
   53.6844  151.8831   -8.5233 H   0  0  0  0  0  0  0  0  0  0  0  0
   55.2882  151.4121   -9.0831 H   0  0  0  0  0  0  0  0  0  0  0  0
   55.6426  157.2817   -5.2727 H   0  0  0  0  0  0  0  0  0  0  0  0
   56.2352  156.0430   -4.1839 H   0  0  0  0  0  0  0  0  0  0  0  0
   53.8832  154.9247   -4.4254 H   0  0  0  0  0  0  0  0  0  0  0  0
   53.0699  157.0225   -5.7161 H   0  0  0  0  0  0  0  0  0  0  0  0
   52.9679  155.6183   -6.7512 H   0  0  0  0  0  0  0  0  0  0  0  0
  1  7  1  0  0  0  0
  1  9  3  0  0  0  0
  2  3  1  0  0  0  0
  2  4  2  0  0  0  0
  3  5  2  0  0  0  0
  4  6  1  0  0  0  0
  4 11  1  0  0  0  0
  5  8  1  0  0  0  0
  5 11  1  0  0  0  0
  7  8  1  0  0  0  0
  8 10  1  0  0  0  0
  2 12  1  0  0  0  0
  3 13  1  0  0  0  0
  6 14  1  0  0  0  0
  6 15  1  0  0  0  0
  6 16  1  0  0  0  0
  7 17  1  0  0  0  0
  7 18  1  0  0  0  0
  8 19  1  0  0  0  0
 10 20  1  0  0  0  0
 10 21  1  0  0  0  0
M  END
> <FRED Chemgauss4 score>
-5.452248

$$$$
C82928767	P129631279
  -OEChem-05122015083D

 29 29  0     1  0  0  0  0  0999 V2000
   59.4857  157.1061   -6.3012 C   0  0  0  0  0  0  0  0  0  0  0  0
   58.7565  155.6011   -7.5504 C   0  0  0  0  0  0  0  0  0  0  0  0
   56.5158  153.8261   -6.2956 C   0  0  0  0  0  0  0  0  0  0  0  0
   53.4957  156.9237   -6.2127 C   0  0  0  0  0  0  0  0  0  0  0  0
   55.6201  155.9585   -5.2798 C   0  0  0  0  0  0  0  0  0  0  0  0
   53.4006  155.7810   -3.9450 C   0  0  0  0  0  0  0  0  0  0  0  0
   56.4255  155.3514   -6.4574 C   0  0  1  0  0  0  0  0  0  0  0  0
   54.0769  155.8058   -5.3320 C   0  0  1  0  0  0  0  0  0  0  0  0
   59.8332  156.3302   -7.3698 N   0  0  0  0  0  0  0  0  0  0  0  0
   58.2617  156.9029   -5.8093 N   0  0  0  0  0  0  0  0  0  0  0  0
   57.8168  155.9358   -6.6260 N   0  0  0  0  0  0  0  0  0  0  0  0
   53.5992  156.9997   -3.1703 N   0  0  0  0  0  0  0  0  0  0  0  0
   53.7678  154.5690   -5.9857 O   0  0  0  0  0  0  0  0  0  0  0  0
   60.1442  157.8440   -5.8682 H   0  0  0  0  0  0  0  0  0  0  0  0
   58.6082  154.8459   -8.3093 H   0  0  0  0  0  0  0  0  0  0  0  0
   57.0723  153.5672   -5.3882 H   0  0  0  0  0  0  0  0  0  0  0  0
   55.5181  153.3800   -6.2124 H   0  0  0  0  0  0  0  0  0  0  0  0
   57.0238  153.3538   -7.1435 H   0  0  0  0  0  0  0  0  0  0  0  0
   52.4038  156.8430   -6.2697 H   0  0  0  0  0  0  0  0  0  0  0  0
   53.7082  157.9097   -5.7836 H   0  0  0  0  0  0  0  0  0  0  0  0
   53.8938  156.8969   -7.2317 H   0  0  0  0  0  0  0  0  0  0  0  0
   55.8606  157.0277   -5.2039 H   0  0  0  0  0  0  0  0  0  0  0  0
   55.9818  155.5006   -4.3490 H   0  0  0  0  0  0  0  0  0  0  0  0
   52.3235  155.6076   -4.0654 H   0  0  0  0  0  0  0  0  0  0  0  0
   53.7605  154.9236   -3.3657 H   0  0  0  0  0  0  0  0  0  0  0  0
   55.8585  155.5210   -7.3810 H   0  0  0  0  0  0  0  0  0  0  0  0
   53.5546  156.9384   -2.1750 H   0  0  0  0  0  0  0  0  0  0  0  0
   53.5689  157.8741   -3.6508 H   0  0  0  0  0  0  0  0  0  0  0  0
   52.8026  154.5293   -6.0433 H   0  0  0  0  0  0  0  0  0  0  0  0
  1  9  1  0  0  0  0
  1 10  2  0  0  0  0
  2  9  2  0  0  0  0
  2 11  1  0  0  0  0
  3  7  1  0  0  0  0
  4  8  1  0  0  0  0
  5  7  1  0  0  0  0
  5  8  1  0  0  0  0
  6  8  1  0  0  0  0
  6 12  1  0  0  0  0
  7 11  1  0  0  0  0
  8 13  1  0  0  0  0
 10 11  1  0  0  0  0
  1 14  1  0  0  0  0
  2 15  1  0  0  0  0
  3 16  1  0  0  0  0
  3 17  1  0  0  0  0
  3 18  1  0  0  0  0
  4 19  1  0  0  0  0
  4 20  1  0  0  0  0
  4 21  1  0  0  0  0
  5 22  1  0  0  0  0
  5 23  1  0  0  0  0
  6 24  1  0  0  0  0
  6 25  1  0  0  0  0
  7 26  1  0  0  0  0
 12 27  1  0  0  0  0
 12 28  1  0  0  0  0
 13 29  1  0  0  0  0
M  END
> <FRED Chemgauss4 score>
-5.448167

$$$$
C51074732	P76470640
  -OEChem-05122015083D

 20 20  0     1  0  0  0  0  0999 V2000
   57.8492  154.8633   -7.0383 C   0  0  0  0  0  0  0  0  0  0  0  0
   56.7878  154.6257   -6.5300 C   0  0  0  0  0  0  0  0  0  0  0  0
   55.5684  158.0270   -2.5197 C   0  0  0  0  0  0  0  0  0  0  0  0
   56.4992  157.7586   -3.4990 C   0  0  0  0  0  0  0  0  0  0  0  0
   54.0330  156.7445   -3.6274 C   0  0  0  0  0  0  0  0  0  0  0  0
   54.9635  156.4766   -4.6072 C   0  0  0  0  0  0  0  0  0  0  0  0
   55.4853  154.3315   -5.9082 C   0  0  0  0  0  0  0  0  0  0  0  0
   54.6050  155.5923   -5.7902 C   0  0  1  0  0  0  0  0  0  0  0  0
   54.3186  157.5247   -2.5663 N   0  0  0  0  0  0  0  0  0  0  0  0
   56.2134  156.9786   -4.5604 N   0  0  0  0  0  0  0  0  0  0  0  0
   53.1907  155.2002   -5.7331 N   0  0  0  0  0  0  0  0  0  0  0  0
   58.7903  155.0745   -7.4896 H   0  0  0  0  0  0  0  0  0  0  0  0
   55.7988  158.6539   -1.6672 H   0  0  0  0  0  0  0  0  0  0  0  0
   57.5034  158.1624   -3.4608 H   0  0  0  0  0  0  0  0  0  0  0  0
   53.0264  156.3442   -3.6582 H   0  0  0  0  0  0  0  0  0  0  0  0
   55.6692  153.9193   -4.9072 H   0  0  0  0  0  0  0  0  0  0  0  0
   54.9780  153.5437   -6.4782 H   0  0  0  0  0  0  0  0  0  0  0  0
   54.7298  156.1796   -6.7098 H   0  0  0  0  0  0  0  0  0  0  0  0
   52.9148  154.3956   -6.2454 H   0  0  0  0  0  0  0  0  0  0  0  0
   52.5452  155.8574   -5.3621 H   0  0  0  0  0  0  0  0  0  0  0  0
  1  2  3  0  0  0  0
  2  7  1  0  0  0  0
  3  4  2  0  0  0  0
  3  9  1  0  0  0  0
  4 10  1  0  0  0  0
  5  6  1  0  0  0  0
  5  9  2  0  0  0  0
  6  8  1  0  0  0  0
  6 10  2  0  0  0  0
  7  8  1  0  0  0  0
  8 11  1  0  0  0  0
  1 12  1  0  0  0  0
  3 13  1  0  0  0  0
  4 14  1  0  0  0  0
  5 15  1  0  0  0  0
  7 16  1  0  0  0  0
  7 17  1  0  0  0  0
  8 18  1  0  0  0  0
 11 19  1  0  0  0  0
 11 20  1  0  0  0  0
M  END
> <FRED Chemgauss4 score>
-5.446344

$$$$
C85374462	P133634517
  -OEChem-05122015083D

 33 33  0     1  0  0  0  0  0999 V2000
   55.0279  156.1622   -3.8341 C   0  0  0  0  0  0  0  0  0  0  0  0
   55.2105  157.5985   -1.7782 C   0  0  0  0  0  0  0  0  0  0  0  0
   54.7368  159.6874   -2.7001 C   0  0  0  0  0  0  0  0  0  0  0  0
   55.3740  157.5111   -3.2858 C   0  0  2  0  0  0  0  0  0  0  0  0
   54.5037  158.6522   -3.7893 C   0  0  1  0  0  0  0  0  0  0  0  0
   55.0934  152.1324   -8.1745 C   0  0  0  0  0  0  0  0  0  0  0  0
   56.1087  156.7448   -6.0109 C   0  0  0  0  0  0  0  0  0  0  0  0
   55.1156  154.0121   -6.6823 C   0  0  0  0  0  0  0  0  0  0  0  0
   54.2975  155.0726   -5.9648 C   0  0  0  0  0  0  0  0  0  0  0  0
   53.0786  158.3190   -3.8341 N   0  0  0  0  0  0  0  0  0  0  0  0
   54.2900  153.1088   -7.4380 N   0  0  0  0  0  0  0  0  0  0  0  0
   55.1409  156.0002   -5.2154 N   0  0  0  0  0  0  0  0  0  0  0  0
   54.6660  155.2725   -3.0595 O   0  0  0  0  0  0  0  0  0  0  0  0
   54.8865  158.9631   -1.4694 O   0  0  0  0  0  0  0  0  0  0  0  0
   54.4281  156.9467   -1.3787 H   0  0  0  0  0  0  0  0  0  0  0  0
   56.1513  157.3640   -1.2692 H   0  0  0  0  0  0  0  0  0  0  0  0
   55.6323  160.2919   -2.8804 H   0  0  0  0  0  0  0  0  0  0  0  0
   53.8849  160.3679   -2.5789 H   0  0  0  0  0  0  0  0  0  0  0  0
   56.4543  157.6850   -3.5738 H   0  0  0  0  0  0  0  0  0  0  0  0
   54.8320  159.0008   -4.7135 H   0  0  0  0  0  0  0  0  0  0  0  0
   55.7149  151.5585   -7.4823 H   0  0  0  0  0  0  0  0  0  0  0  0
   55.7431  152.6415   -8.8916 H   0  0  0  0  0  0  0  0  0  0  0  0
   54.4435  151.4421   -8.7191 H   0  0  0  0  0  0  0  0  0  0  0  0
   57.0496  156.1919   -6.0720 H   0  0  0  0  0  0  0  0  0  0  0  0
   56.3023  157.7197   -5.5552 H   0  0  0  0  0  0  0  0  0  0  0  0
   55.7258  156.9010   -7.0230 H   0  0  0  0  0  0  0  0  0  0  0  0
   55.6971  153.4108   -5.9763 H   0  0  0  0  0  0  0  0  0  0  0  0
   55.8056  154.4839   -7.3889 H   0  0  0  0  0  0  0  0  0  0  0  0
   53.7300  155.6667   -6.6878 H   0  0  0  0  0  0  0  0  0  0  0  0
   53.5939  154.6223   -5.2571 H   0  0  0  0  0  0  0  0  0  0  0  0
   52.8092  157.4214   -4.1853 H   0  0  0  0  0  0  0  0  0  0  0  0
   52.4124  159.0555   -3.7098 H   0  0  0  0  0  0  0  0  0  0  0  0
   53.7188  153.6309   -8.1114 H   0  0  0  0  0  0  0  0  0  0  0  0
  1  4  1  0  0  0  0
  1 12  1  0  0  0  0
  1 13  2  0  0  0  0
  2  4  1  0  0  0  0
  2 14  1  0  0  0  0
  3  5  1  0  0  0  0
  3 14  1  0  0  0  0
  4  5  1  0  0  0  0
  5 10  1  0  0  0  0
  6 11  1  0  0  0  0
  7 12  1  0  0  0  0
  8  9  1  0  0  0  0
  8 11  1  0  0  0  0
  9 12  1  0  0  0  0
  2 15  1  0  0  0  0
  2 16  1  0  0  0  0
  3 17  1  0  0  0  0
  3 18  1  0  0  0  0
  4 19  1  0  0  0  0
  5 20  1  0  0  0  0
  6 21  1  0  0  0  0
  6 22  1  0  0  0  0
  6 23  1  0  0  0  0
  7 24  1  0  0  0  0
  7 25  1  0  0  0  0
  7 26  1  0  0  0  0
  8 27  1  0  0  0  0
  8 28  1  0  0  0  0
  9 29  1  0  0  0  0
  9 30  1  0  0  0  0
 10 31  1  0  0  0  0
 10 32  1  0  0  0  0
 11 33  1  0  0  0  0
M  END
> <FRED Chemgauss4 score>
-5.441829

$$$$
C08299019	P108959850
  -OEChem-05122015083D

 27 27  0     1  0  0  0  0  0999 V2000
   54.7761  155.0375   -5.1094 C   0  0  0  0  0  0  0  0  0  0  0  0
   55.4050  157.3902   -4.4634 C   0  0  1  0  0  0  0  0  0  0  0  0
   54.1235  157.4314   -3.6081 C   0  0  2  0  0  0  0  0  0  0  0  0
   53.6621  156.0190   -3.2279 C   0  0  1  0  0  0  0  0  0  0  0  0
   55.2785  156.3898   -5.6380 C   0  0  1  0  0  0  0  0  0  0  0  0
   56.6028  156.1908   -6.3813 C   0  0  0  0  0  0  0  0  0  0  0  0
   56.4371  159.4714   -3.8557 C   0  0  0  0  0  0  0  0  0  0  0  0
   55.7534  158.7418   -4.9111 N   0  0  0  0  0  0  0  0  0  0  0  0
   53.5565  155.1764   -4.3789 O   0  0  0  0  0  0  0  0  0  0  0  0
   53.0734  158.0632   -4.3425 O   0  0  0  0  0  0  0  0  0  0  0  0
   54.4740  155.4456   -2.2076 O   0  0  0  0  0  0  0  0  0  0  0  0
   54.3321  156.8631   -6.6015 O   0  0  0  0  0  0  0  0  0  0  0  0
   54.5582  154.3622   -5.9446 H   0  0  0  0  0  0  0  0  0  0  0  0
   55.5240  154.5479   -4.4744 H   0  0  0  0  0  0  0  0  0  0  0  0
   56.2204  157.0482   -3.8219 H   0  0  0  0  0  0  0  0  0  0  0  0
   54.3064  158.0268   -2.7054 H   0  0  0  0  0  0  0  0  0  0  0  0
   52.6258  156.0843   -2.8184 H   0  0  0  0  0  0  0  0  0  0  0  0
   56.9575  157.1479   -6.7549 H   0  0  0  0  0  0  0  0  0  0  0  0
   56.4527  155.5109   -7.2160 H   0  0  0  0  0  0  0  0  0  0  0  0
   57.3414  155.7720   -5.7027 H   0  0  0  0  0  0  0  0  0  0  0  0
   57.3563  158.9512   -3.5741 H   0  0  0  0  0  0  0  0  0  0  0  0
   55.7946  159.5524   -2.9748 H   0  0  0  0  0  0  0  0  0  0  0  0
   56.6929  160.4782   -4.1968 H   0  0  0  0  0  0  0  0  0  0  0  0
   54.8999  159.2324   -5.1668 H   0  0  0  0  0  0  0  0  0  0  0  0
   52.2968  158.0628   -3.7633 H   0  0  0  0  0  0  0  0  0  0  0  0
   54.4038  156.0303   -1.4370 H   0  0  0  0  0  0  0  0  0  0  0  0
   54.2997  156.1936   -7.2999 H   0  0  0  0  0  0  0  0  0  0  0  0
  1  5  1  0  0  0  0
  1  9  1  0  0  0  0
  2  3  1  0  0  0  0
  2  5  1  0  0  0  0
  2  8  1  0  0  0  0
  3  4  1  0  0  0  0
  3 10  1  0  0  0  0
  4  9  1  0  0  0  0
  4 11  1  0  0  0  0
  5  6  1  0  0  0  0
  5 12  1  0  0  0  0
  7  8  1  0  0  0  0
  1 13  1  0  0  0  0
  1 14  1  0  0  0  0
  2 15  1  0  0  0  0
  3 16  1  0  0  0  0
  4 17  1  0  0  0  0
  6 18  1  0  0  0  0
  6 19  1  0  0  0  0
  6 20  1  0  0  0  0
  7 21  1  0  0  0  0
  7 22  1  0  0  0  0
  7 23  1  0  0  0  0
  8 24  1  0  0  0  0
 10 25  1  0  0  0  0
 11 26  1  0  0  0  0
 12 27  1  0  0  0  0
M  END
> <FRED Chemgauss4 score>
-5.436937

$$$$
C83947884	P131328941
  -OEChem-05122015083D

 15 15  0     1  0  0  0  0  0999 V2000
   57.0168  156.3423   -6.8310 C   0  0  0  0  0  0  0  0  0  0  0  0
   55.9070  155.9165   -6.6607 C   0  0  0  0  0  0  0  0  0  0  0  0
   53.8429  156.1308   -3.0291 C   0  0  0  0  0  0  0  0  0  0  0  0
   54.0564  155.6089   -5.0389 C   0  0  0  0  0  0  0  0  0  0  0  0
   54.5486  155.3896   -6.4533 C   0  0  1  0  0  0  0  0  0  0  0  0
   54.7227  156.1950   -4.0714 N   0  0  0  0  0  0  0  0  0  0  0  0
   52.8365  155.2175   -4.5825 N   0  0  0  0  0  0  0  0  0  0  0  0
   52.6740  155.5420   -3.2908 N   0  0  0  0  0  0  0  0  0  0  0  0
   53.6407  155.9527   -7.4251 N   0  0  0  0  0  0  0  0  0  0  0  0
   58.0009  156.7200   -6.9821 H   0  0  0  0  0  0  0  0  0  0  0  0
   54.0771  156.5318   -2.0517 H   0  0  0  0  0  0  0  0  0  0  0  0
   54.5620  154.3136   -6.6663 H   0  0  0  0  0  0  0  0  0  0  0  0
   51.8276  155.3332   -2.7686 H   0  0  0  0  0  0  0  0  0  0  0  0
   52.6540  155.9305   -7.2373 H   0  0  0  0  0  0  0  0  0  0  0  0
   53.9854  156.1663   -8.3443 H   0  0  0  0  0  0  0  0  0  0  0  0
  1  2  3  0  0  0  0
  2  5  1  0  0  0  0
  3  6  2  0  0  0  0
  3  8  1  0  0  0  0
  4  5  1  0  0  0  0
  4  6  1  0  0  0  0
  4  7  2  0  0  0  0
  5  9  1  0  0  0  0
  7  8  1  0  0  0  0
  1 10  1  0  0  0  0
  3 11  1  0  0  0  0
  5 12  1  0  0  0  0
  8 13  1  0  0  0  0
  9 14  1  0  0  0  0
  9 15  1  0  0  0  0
M  END
> <FRED Chemgauss4 score>
-5.435939

$$$$
C39050781	P151023628
  -OEChem-05122015083D

 17 17  0     0  0  0  0  0  0999 V2000
   55.2037  156.1449   -6.3053 C   0  0  0  0  0  0  0  0  0  0  0  0
   55.6728  156.6638   -4.0178 C   0  0  0  0  0  0  0  0  0  0  0  0
   53.8787  155.2389   -4.5316 C   0  0  0  0  0  0  0  0  0  0  0  0
   55.9810  156.8111   -5.3627 C   0  0  0  0  0  0  0  0  0  0  0  0
   54.1402  155.3493   -5.8898 C   0  0  0  0  0  0  0  0  0  0  0  0
   57.1225  157.6672   -5.7869 C   0  0  0  0  0  0  0  0  0  0  0  0
   54.6431  155.8914   -3.6453 N   0  3  0  0  0  0  0  0  0  0  0  0
   54.3784  155.7724   -2.3928 O   0  5  0  0  0  0  0  0  0  0  0  0
   53.3710  154.6926   -6.7956 O   0  0  0  0  0  0  0  0  0  0  0  0
   56.7607  159.0380   -5.6616 O   0  0  0  0  0  0  0  0  0  0  0  0
   55.4243  156.2446   -7.3650 H   0  0  0  0  0  0  0  0  0  0  0  0
   56.2188  157.1422   -3.2175 H   0  0  0  0  0  0  0  0  0  0  0  0
   53.0751  154.6452   -4.1207 H   0  0  0  0  0  0  0  0  0  0  0  0
   58.0150  157.4842   -5.1711 H   0  0  0  0  0  0  0  0  0  0  0  0
   57.4016  157.4719   -6.8324 H   0  0  0  0  0  0  0  0  0  0  0  0
   53.6815  154.8721   -7.6987 H   0  0  0  0  0  0  0  0  0  0  0  0
   57.5300  159.5559   -5.9471 H   0  0  0  0  0  0  0  0  0  0  0  0
  1  4  1  0  0  0  0
  1  5  2  0  0  0  0
  2  4  2  0  0  0  0
  2  7  1  0  0  0  0
  3  5  1  0  0  0  0
  3  7  2  0  0  0  0
  4  6  1  0  0  0  0
  5  9  1  0  0  0  0
  6 10  1  0  0  0  0
  7  8  1  0  0  0  0
  1 11  1  0  0  0  0
  2 12  1  0  0  0  0
  3 13  1  0  0  0  0
  6 14  1  0  0  0  0
  6 15  1  0  0  0  0
  9 16  1  0  0  0  0
 10 17  1  0  0  0  0
M  CHG  2   7   1   8  -1
M  END
> <FRED Chemgauss4 score>
-5.431872

$$$$
C70590893	P108886028
  -OEChem-05122015083D

 28 28  0     1  0  0  0  0  0999 V2000
   54.6826  156.4527   -3.3510 C   0  0  0  0  0  0  0  0  0  0  0  0
   53.5198  155.5216   -3.6125 C   0  0  0  0  0  0  0  0  0  0  0  0
   55.2038  155.2224   -5.3040 C   0  0  0  0  0  0  0  0  0  0  0  0
   53.7075  155.1181   -5.0713 C   0  0  2  0  0  0  0  0  0  0  0  0
   58.7500  158.2713   -8.1474 C   0  0  0  0  0  0  0  0  0  0  0  0
   56.9240  156.8526   -4.4355 C   0  0  0  0  0  0  0  0  0  0  0  0
   58.4376  158.3686   -5.8202 C   0  0  0  0  0  0  0  0  0  0  0  0
   57.0701  157.7037   -5.6970 C   0  0  2  0  0  0  0  0  0  0  0  0
   55.6145  156.2410   -4.3631 N   0  0  0  0  0  0  0  0  0  0  0  0
   54.7679  157.2030   -2.3901 O   0  0  0  0  0  0  0  0  0  0  0  0
   53.0207  156.0525   -5.8998 O   0  0  0  0  0  0  0  0  0  0  0  0
   56.0678  158.7209   -5.7087 O   0  0  0  0  0  0  0  0  0  0  0  0
   58.4803  159.1115   -7.0348 O   0  0  0  0  0  0  0  0  0  0  0  0
   53.6210  154.6605   -2.9444 H   0  0  0  0  0  0  0  0  0  0  0  0
   52.5749  156.0414   -3.4338 H   0  0  0  0  0  0  0  0  0  0  0  0
   55.7228  154.2960   -5.0381 H   0  0  0  0  0  0  0  0  0  0  0  0
   55.4632  155.5308   -6.3209 H   0  0  0  0  0  0  0  0  0  0  0  0
   53.3092  154.1225   -5.2868 H   0  0  0  0  0  0  0  0  0  0  0  0
   58.7758  158.8713   -9.0603 H   0  0  0  0  0  0  0  0  0  0  0  0
   57.9738  157.5057   -8.2236 H   0  0  0  0  0  0  0  0  0  0  0  0
   59.7204  157.7905   -8.0027 H   0  0  0  0  0  0  0  0  0  0  0  0
   57.6746  156.0552   -4.4333 H   0  0  0  0  0  0  0  0  0  0  0  0
   57.0838  157.4666   -3.5431 H   0  0  0  0  0  0  0  0  0  0  0  0
   59.2368  157.6217   -5.8514 H   0  0  0  0  0  0  0  0  0  0  0  0
   58.6195  159.0686   -4.9985 H   0  0  0  0  0  0  0  0  0  0  0  0
   56.8907  157.0775   -6.5790 H   0  0  0  0  0  0  0  0  0  0  0  0
   53.1615  155.7655   -6.8154 H   0  0  0  0  0  0  0  0  0  0  0  0
   55.2138  158.2633   -5.6973 H   0  0  0  0  0  0  0  0  0  0  0  0
  1  2  1  0  0  0  0
  1  9  1  0  0  0  0
  1 10  2  0  0  0  0
  2  4  1  0  0  0  0
  3  4  1  0  0  0  0
  3  9  1  0  0  0  0
  4 11  1  0  0  0  0
  5 13  1  0  0  0  0
  6  8  1  0  0  0  0
  6  9  1  0  0  0  0
  7  8  1  0  0  0  0
  7 13  1  0  0  0  0
  8 12  1  0  0  0  0
  2 14  1  0  0  0  0
  2 15  1  0  0  0  0
  3 16  1  0  0  0  0
  3 17  1  0  0  0  0
  4 18  1  0  0  0  0
  5 19  1  0  0  0  0
  5 20  1  0  0  0  0
  5 21  1  0  0  0  0
  6 22  1  0  0  0  0
  6 23  1  0  0  0  0
  7 24  1  0  0  0  0
  7 25  1  0  0  0  0
  8 26  1  0  0  0  0
 11 27  1  0  0  0  0
 12 28  1  0  0  0  0
M  END
> <FRED Chemgauss4 score>
-5.430806

$$$$
C50973521	P76326569
  -OEChem-05122015083D

 29 30  0     1  0  0  0  0  0999 V2000
   57.0553  156.9614   -5.4517 C   0  0  0  0  0  0  0  0  0  0  0  0
   56.3493  158.0753   -3.8579 C   0  0  0  0  0  0  0  0  0  0  0  0
   59.6844  156.3425   -7.5023 C   0  0  0  0  0  0  0  0  0  0  0  0
   59.9106  154.8338   -7.4197 C   0  0  0  0  0  0  0  0  0  0  0  0
   58.2084  156.6732   -7.6827 C   0  0  0  0  0  0  0  0  0  0  0  0
   58.6471  154.0718   -7.0380 C   0  0  0  0  0  0  0  0  0  0  0  0
   57.3336  156.0122   -6.6002 C   0  0  1  0  0  0  0  0  0  0  0  0
   56.0903  158.4764   -1.3751 C   0  0  0  0  0  0  0  0  0  0  0  0
   55.4676  158.5547   -2.7877 C   0  0  2  0  0  0  0  0  0  0  0  0
   56.0046  157.0380   -4.6747 N   0  0  0  0  0  0  0  0  0  0  0  0
   57.5422  158.6293   -4.0943 N   0  0  0  0  0  0  0  0  0  0  0  0
   54.1732  157.8744   -2.7667 N   0  0  0  0  0  0  0  0  0  0  0  0
   58.0212  157.8756   -5.1732 O   0  0  0  0  0  0  0  0  0  0  0  0
   57.9029  154.8054   -6.0729 O   0  0  0  0  0  0  0  0  0  0  0  0
   60.0729  156.8289   -6.5968 H   0  0  0  0  0  0  0  0  0  0  0  0
   60.2568  156.7494   -8.3489 H   0  0  0  0  0  0  0  0  0  0  0  0
   60.3060  154.4578   -8.3783 H   0  0  0  0  0  0  0  0  0  0  0  0
   60.6892  154.6401   -6.6608 H   0  0  0  0  0  0  0  0  0  0  0  0
   58.0903  157.7694   -7.6331 H   0  0  0  0  0  0  0  0  0  0  0  0
   57.8707  156.3704   -8.6869 H   0  0  0  0  0  0  0  0  0  0  0  0
   58.0207  153.8768   -7.9139 H   0  0  0  0  0  0  0  0  0  0  0  0
   58.9143  153.1089   -6.5962 H   0  0  0  0  0  0  0  0  0  0  0  0
   56.3282  155.7539   -7.0466 H   0  0  0  0  0  0  0  0  0  0  0  0
   56.3896  157.4469   -1.1500 H   0  0  0  0  0  0  0  0  0  0  0  0
   56.9750  159.1158   -1.2786 H   0  0  0  0  0  0  0  0  0  0  0  0
   55.3768  158.7964   -0.6074 H   0  0  0  0  0  0  0  0  0  0  0  0
   55.1939  159.6234   -2.9354 H   0  0  0  0  0  0  0  0  0  0  0  0
   53.7555  157.6385   -3.6395 H   0  0  0  0  0  0  0  0  0  0  0  0
   53.6694  157.8559   -1.9077 H   0  0  0  0  0  0  0  0  0  0  0  0
  1  7  1  0  0  0  0
  1 10  2  0  0  0  0
  1 13  1  0  0  0  0
  2  9  1  0  0  0  0
  2 10  1  0  0  0  0
  2 11  2  0  0  0  0
  3  4  1  0  0  0  0
  3  5  1  0  0  0  0
  4  6  1  0  0  0  0
  5  7  1  0  0  0  0
  6 14  1  0  0  0  0
  7 14  1  0  0  0  0
  8  9  1  0  0  0  0
  9 12  1  0  0  0  0
 11 13  1  0  0  0  0
  3 15  1  0  0  0  0
  3 16  1  0  0  0  0
  4 17  1  0  0  0  0
  4 18  1  0  0  0  0
  5 19  1  0  0  0  0
  5 20  1  0  0  0  0
  6 21  1  0  0  0  0
  6 22  1  0  0  0  0
  7 23  1  0  0  0  0
  8 24  1  0  0  0  0
  8 25  1  0  0  0  0
  8 26  1  0  0  0  0
  9 27  1  0  0  0  0
 12 28  1  0  0  0  0
 12 29  1  0  0  0  0
M  END
> <FRED Chemgauss4 score>
-5.430228

$$$$
C49351888	P73718031
  -OEChem-05122015083D

 38 38  0     1  0  0  0  0  0999 V2000
   55.1315  156.4849   -6.6247 C   0  0  0  0  0  0  0  0  0  0  0  0
   56.1517  157.0834   -5.7995 C   0  0  0  0  0  0  0  0  0  0  0  0
   53.8646  156.4690   -6.1991 C   0  0  0  0  0  0  0  0  0  0  0  0
   55.8568  157.6274   -4.6084 C   0  0  0  0  0  0  0  0  0  0  0  0
   54.4339  157.6126   -4.1253 C   0  0  0  0  0  0  0  0  0  0  0  0
   56.9967  158.2056   -3.8735 C   0  0  0  0  0  0  0  0  0  0  0  0
   58.7178  161.3511   -4.5981 C   0  0  0  0  0  0  0  0  0  0  0  0
   57.7896  160.9970   -2.2957 C   0  0  0  0  0  0  0  0  0  0  0  0
   61.6159  163.7050   -4.1662 C   0  0  0  0  0  0  0  0  0  0  0  0
   61.0328  162.4113   -6.2338 C   0  0  0  0  0  0  0  0  0  0  0  0
   59.4541  164.1485   -5.3515 C   0  0  0  0  0  0  0  0  0  0  0  0
   58.2585  160.3210   -3.5747 C   0  0  1  0  0  0  0  0  0  0  0  0
   60.4740  163.0700   -4.9682 C   0  0  0  0  0  0  0  0  0  0  0  0
   53.5243  157.0150   -4.9871 N   0  0  0  0  0  0  0  0  0  0  0  0
   57.2058  159.5410   -4.1705 N   0  0  0  0  0  0  0  0  0  0  0  0
   59.8247  162.0644   -4.1600 N   0  0  0  0  0  0  0  0  0  0  0  0
   57.6492  157.5208   -3.0933 O   0  0  0  0  0  0  0  0  0  0  0  0
   58.1810  161.4925   -5.6949 O   0  0  0  0  0  0  0  0  0  0  0  0
   53.8805  158.2431   -2.6685 S   0  0  0  0  0  0  0  0  0  0  0  0
   55.4140  156.0569   -7.5792 H   0  0  0  0  0  0  0  0  0  0  0  0
   57.1623  157.0692   -6.1966 H   0  0  0  0  0  0  0  0  0  0  0  0
   53.0560  156.0346   -6.7730 H   0  0  0  0  0  0  0  0  0  0  0  0
   56.9666  161.6934   -2.4936 H   0  0  0  0  0  0  0  0  0  0  0  0
   57.4327  160.2623   -1.5664 H   0  0  0  0  0  0  0  0  0  0  0  0
   58.6037  161.5670   -1.8352 H   0  0  0  0  0  0  0  0  0  0  0  0
   61.2409  164.1837   -3.2541 H   0  0  0  0  0  0  0  0  0  0  0  0
   62.3605  162.9572   -3.8718 H   0  0  0  0  0  0  0  0  0  0  0  0
   62.1270  164.4784   -4.7513 H   0  0  0  0  0  0  0  0  0  0  0  0
   60.2335  161.9494   -6.8250 H   0  0  0  0  0  0  0  0  0  0  0  0
   61.7494  161.6201   -5.9843 H   0  0  0  0  0  0  0  0  0  0  0  0
   61.5446  163.1412   -6.8708 H   0  0  0  0  0  0  0  0  0  0  0  0
   58.6248  163.7211   -5.9271 H   0  0  0  0  0  0  0  0  0  0  0  0
   59.0340  164.6337   -4.4636 H   0  0  0  0  0  0  0  0  0  0  0  0
   59.9139  164.9251   -5.9737 H   0  0  0  0  0  0  0  0  0  0  0  0
   59.0801  159.6298   -3.3573 H   0  0  0  0  0  0  0  0  0  0  0  0
   52.5467  156.9736   -4.7141 H   0  0  0  0  0  0  0  0  0  0  0  0
   56.5863  159.9926   -4.8414 H   0  0  0  0  0  0  0  0  0  0  0  0
   60.1791  161.9097   -3.2208 H   0  0  0  0  0  0  0  0  0  0  0  0
  1  2  1  0  0  0  0
  1  3  2  0  0  0  0
  2  4  2  0  0  0  0
  3 14  1  0  0  0  0
  4  5  1  0  0  0  0
  4  6  1  0  0  0  0
  5 14  1  0  0  0  0
  5 19  2  0  0  0  0
  6 15  1  0  0  0  0
  6 17  2  0  0  0  0
  7 12  1  0  0  0  0
  7 16  1  0  0  0  0
  7 18  2  0  0  0  0
  8 12  1  0  0  0  0
  9 13  1  0  0  0  0
 10 13  1  0  0  0  0
 11 13  1  0  0  0  0
 12 15  1  0  0  0  0
 13 16  1  0  0  0  0
  1 20  1  0  0  0  0
  2 21  1  0  0  0  0
  3 22  1  0  0  0  0
  8 23  1  0  0  0  0
  8 24  1  0  0  0  0
  8 25  1  0  0  0  0
  9 26  1  0  0  0  0
  9 27  1  0  0  0  0
  9 28  1  0  0  0  0
 10 29  1  0  0  0  0
 10 30  1  0  0  0  0
 10 31  1  0  0  0  0
 11 32  1  0  0  0  0
 11 33  1  0  0  0  0
 11 34  1  0  0  0  0
 12 35  1  0  0  0  0
 14 36  1  0  0  0  0
 15 37  1  0  0  0  0
 16 38  1  0  0  0  0
M  END
> <FRED Chemgauss4 score>
-5.428996

$$$$
C36872179	P90374924
  -OEChem-05122015083D

 26 27  0     1  0  0  0  0  0999 V2000
   57.4686  156.0870   -6.7566 C   0  0  0  0  0  0  0  0  0  0  0  0
   57.3414  153.7080   -6.4271 C   0  0  0  0  0  0  0  0  0  0  0  0
   58.7385  155.8928   -7.2758 C   0  0  0  0  0  0  0  0  0  0  0  0
   58.6169  153.6203   -6.9612 C   0  0  0  0  0  0  0  0  0  0  0  0
   54.2819  155.0751   -6.5143 C   0  0  0  0  0  0  0  0  0  0  0  0
   56.7634  154.9685   -6.3264 C   0  0  0  0  0  0  0  0  0  0  0  0
   55.4438  155.1146   -5.7803 C   0  0  0  0  0  0  0  0  0  0  0  0
   53.8719  155.3929   -4.3724 C   0  0  0  0  0  0  0  0  0  0  0  0
   51.7364  156.3428   -3.4084 C   0  0  0  0  0  0  0  0  0  0  0  0
   53.0676  155.6058   -3.1548 C   0  0  2  0  0  0  0  0  0  0  0  0
   59.3330  154.6840   -7.3896 N   0  0  0  0  0  0  0  0  0  0  0  0
   55.1818  155.3124   -4.4477 N   0  0  0  0  0  0  0  0  0  0  0  0
   53.2834  155.2543   -5.5987 N   0  0  0  0  0  0  0  0  0  0  0  0
   53.8054  156.3053   -2.1076 N   0  0  0  0  0  0  0  0  0  0  0  0
   57.0510  157.0868   -6.6943 H   0  0  0  0  0  0  0  0  0  0  0  0
   56.8226  152.8118   -6.1021 H   0  0  0  0  0  0  0  0  0  0  0  0
   59.3301  156.7326   -7.6254 H   0  0  0  0  0  0  0  0  0  0  0  0
   59.1120  152.6600   -7.0617 H   0  0  0  0  0  0  0  0  0  0  0  0
   54.0743  154.9405   -7.5669 H   0  0  0  0  0  0  0  0  0  0  0  0
   51.9226  157.3155   -3.8768 H   0  0  0  0  0  0  0  0  0  0  0  0
   51.0727  155.7708   -4.0664 H   0  0  0  0  0  0  0  0  0  0  0  0
   51.1912  156.5167   -2.4739 H   0  0  0  0  0  0  0  0  0  0  0  0
   52.7956  154.6384   -2.6829 H   0  0  0  0  0  0  0  0  0  0  0  0
   52.2915  155.2795   -5.7949 H   0  0  0  0  0  0  0  0  0  0  0  0
   54.7750  156.0991   -1.9981 H   0  0  0  0  0  0  0  0  0  0  0  0
   53.2841  156.8016   -1.4171 H   0  0  0  0  0  0  0  0  0  0  0  0
  1  3  2  0  0  0  0
  1  6  1  0  0  0  0
  2  4  1  0  0  0  0
  2  6  2  0  0  0  0
  3 11  1  0  0  0  0
  4 11  2  0  0  0  0
  5  7  2  0  0  0  0
  5 13  1  0  0  0  0
  6  7  1  0  0  0  0
  7 12  1  0  0  0  0
  8 10  1  0  0  0  0
  8 12  2  0  0  0  0
  8 13  1  0  0  0  0
  9 10  1  0  0  0  0
 10 14  1  0  0  0  0
  1 15  1  0  0  0  0
  2 16  1  0  0  0  0
  3 17  1  0  0  0  0
  4 18  1  0  0  0  0
  5 19  1  0  0  0  0
  9 20  1  0  0  0  0
  9 21  1  0  0  0  0
  9 22  1  0  0  0  0
 10 23  1  0  0  0  0
 13 24  1  0  0  0  0
 14 25  1  0  0  0  0
 14 26  1  0  0  0  0
M  END
> <FRED Chemgauss4 score>
-5.428303

$$$$
C04218922	P10279791
  -OEChem-05122015083D

 23 23  0     1  0  0  0  0  0999 V2000
   54.3384  156.5128   -5.6740 C   0  0  0  0  0  0  0  0  0  0  0  0
   53.9148  155.9099   -3.5259 C   0  0  0  0  0  0  0  0  0  0  0  0
   55.6934  156.1993   -5.0566 C   0  0  2  0  0  0  0  0  0  0  0  0
   59.3595  156.7641   -8.1114 C   0  0  0  0  0  0  0  0  0  0  0  0
   56.3932  155.0663   -5.7780 C   0  0  0  0  0  0  0  0  0  0  0  0
   57.1011  155.5531   -7.0338 C   0  0  0  0  0  0  0  0  0  0  0  0
   53.3681  156.3188   -4.7213 N   0  0  0  0  0  0  0  0  0  0  0  0
   55.2948  155.8338   -3.7189 N   0  0  0  0  0  0  0  0  0  0  0  0
   54.1660  156.8722   -6.8304 O   0  0  0  0  0  0  0  0  0  0  0  0
   53.3122  155.6644   -2.4900 O   0  0  0  0  0  0  0  0  0  0  0  0
   57.6962  158.0542   -6.5616 O   0  0  0  0  0  0  0  0  0  0  0  0
   59.1444  156.2464   -5.5584 O   0  0  0  0  0  0  0  0  0  0  0  0
   58.3379  156.7537   -6.6558 S   0  0  0  0  0  0  0  0  0  0  0  0
   56.3039  157.1052   -5.0052 H   0  0  0  0  0  0  0  0  0  0  0  0
   60.1618  157.4887   -7.9638 H   0  0  0  0  0  0  0  0  0  0  0  0
   59.7695  155.7628   -8.2516 H   0  0  0  0  0  0  0  0  0  0  0  0
   58.7407  157.0471   -8.9643 H   0  0  0  0  0  0  0  0  0  0  0  0
   55.6622  154.2907   -6.0422 H   0  0  0  0  0  0  0  0  0  0  0  0
   57.1192  154.5928   -5.1038 H   0  0  0  0  0  0  0  0  0  0  0  0
   57.6043  154.7301   -7.5500 H   0  0  0  0  0  0  0  0  0  0  0  0
   56.3992  156.0271   -7.7265 H   0  0  0  0  0  0  0  0  0  0  0  0
   52.3768  156.4603   -4.8776 H   0  0  0  0  0  0  0  0  0  0  0  0
   55.9479  155.5838   -2.9829 H   0  0  0  0  0  0  0  0  0  0  0  0
  1  3  1  0  0  0  0
  1  7  1  0  0  0  0
  1  9  2  0  0  0  0
  2  7  1  0  0  0  0
  2  8  1  0  0  0  0
  2 10  2  0  0  0  0
  3  5  1  0  0  0  0
  3  8  1  0  0  0  0
  4 13  1  0  0  0  0
  5  6  1  0  0  0  0
  6 13  1  0  0  0  0
 11 13  2  0  0  0  0
 12 13  2  0  0  0  0
  3 14  1  0  0  0  0
  4 15  1  0  0  0  0
  4 16  1  0  0  0  0
  4 17  1  0  0  0  0
  5 18  1  0  0  0  0
  5 19  1  0  0  0  0
  6 20  1  0  0  0  0
  6 21  1  0  0  0  0
  7 22  1  0  0  0  0
  8 23  1  0  0  0  0
M  END
> <FRED Chemgauss4 score>
-5.425800

$$$$
C95869841	P150894217
  -OEChem-05122015083D

 32 33  0     1  0  0  0  0  0999 V2000
   57.6530  156.7497   -5.5761 C   0  0  0  0  0  0  0  0  0  0  0  0
   57.3314  154.4807   -6.5894 C   0  0  0  0  0  0  0  0  0  0  0  0
   59.4346  155.4451   -6.2728 C   0  0  0  0  0  0  0  0  0  0  0  0
   55.6606  158.1090   -5.1016 C   0  0  0  0  0  0  0  0  0  0  0  0
   56.7019  155.8175   -6.2853 C   0  0  1  0  0  0  0  0  0  0  0  0
   54.8347  156.8105   -5.0285 C   0  0  2  0  0  0  0  0  0  0  0  0
   52.1949  155.3765   -4.4545 C   0  0  0  0  0  0  0  0  0  0  0  0
   54.2628  156.6059   -3.6247 C   0  0  2  0  0  0  0  0  0  0  0  0
   53.4033  155.3391   -3.5262 C   0  0  1  0  0  0  0  0  0  0  0  0
   58.9310  156.5322   -5.5911 N   0  0  0  0  0  0  0  0  0  0  0  0
   58.6950  154.4763   -6.7427 N   0  0  0  0  0  0  0  0  0  0  0  0
   57.0712  157.8272   -4.9476 N   0  0  0  0  0  0  0  0  0  0  0  0
   55.5774  155.5902   -5.3798 N   0  0  0  0  0  0  0  0  0  0  0  0
   60.7975  155.3933   -6.4471 N   0  0  0  0  0  0  0  0  0  0  0  0
   56.6457  153.4747   -6.7628 O   0  0  0  0  0  0  0  0  0  0  0  0
   53.4765  157.7453   -3.2853 O   0  0  0  0  0  0  0  0  0  0  0  0
   52.9397  155.1570   -2.1898 O   0  0  0  0  0  0  0  0  0  0  0  0
   55.4881  158.6083   -6.0583 H   0  0  0  0  0  0  0  0  0  0  0  0
   55.3568  158.7983   -4.3080 H   0  0  0  0  0  0  0  0  0  0  0  0
   56.3711  156.2706   -7.2100 H   0  0  0  0  0  0  0  0  0  0  0  0
   53.9503  156.8961   -5.7092 H   0  0  0  0  0  0  0  0  0  0  0  0
   51.5555  156.2375   -4.2382 H   0  0  0  0  0  0  0  0  0  0  0  0
   52.4974  155.4167   -5.5064 H   0  0  0  0  0  0  0  0  0  0  0  0
   51.6005  154.4636   -4.3382 H   0  0  0  0  0  0  0  0  0  0  0  0
   55.0858  156.5430   -2.9048 H   0  0  0  0  0  0  0  0  0  0  0  0
   54.0149  154.4649   -3.7757 H   0  0  0  0  0  0  0  0  0  0  0  0
   57.5568  158.2905   -4.2081 H   0  0  0  0  0  0  0  0  0  0  0  0
   54.9252  154.9170   -5.8193 H   0  0  0  0  0  0  0  0  0  0  0  0
   61.3440  156.1337   -6.0769 H   0  0  0  0  0  0  0  0  0  0  0  0
   61.1768  154.6179   -6.9355 H   0  0  0  0  0  0  0  0  0  0  0  0
   54.0716  158.5104   -3.3159 H   0  0  0  0  0  0  0  0  0  0  0  0
   52.4580  154.3157   -2.1779 H   0  0  0  0  0  0  0  0  0  0  0  0
  1  5  1  0  0  0  0
  1 10  2  0  0  0  0
  1 12  1  0  0  0  0
  2  5  1  0  0  0  0
  2 11  1  0  0  0  0
  2 15  2  0  0  0  0
  3 10  1  0  0  0  0
  3 11  2  0  0  0  0
  3 14  1  0  0  0  0
  4  6  1  0  0  0  0
  4 12  1  0  0  0  0
  5 13  1  0  0  0  0
  6  8  1  0  0  0  0
  6 13  1  0  0  0  0
  7  9  1  0  0  0  0
  8  9  1  0  0  0  0
  8 16  1  0  0  0  0
  9 17  1  0  0  0  0
  4 18  1  0  0  0  0
  4 19  1  0  0  0  0
  5 20  1  0  0  0  0
  6 21  1  0  0  0  0
  7 22  1  0  0  0  0
  7 23  1  0  0  0  0
  7 24  1  0  0  0  0
  8 25  1  0  0  0  0
  9 26  1  0  0  0  0
 12 27  1  0  0  0  0
 13 28  1  0  0  0  0
 14 29  1  0  0  0  0
 14 30  1  0  0  0  0
 16 31  1  0  0  0  0
 17 32  1  0  0  0  0
M  END
> <FRED Chemgauss4 score>
-5.425645

$$$$
C39118751	P59262022
  -OEChem-05122015083D

 17 17  0     0  0  0  0  0  0999 V2000
   55.2617  156.1176   -3.5537 C   0  0  0  0  0  0  0  0  0  0  0  0
   55.9630  156.3700   -4.6701 C   0  0  0  0  0  0  0  0  0  0  0  0
   53.7907  156.2694   -3.5397 C   0  0  0  0  0  0  0  0  0  0  0  0
   53.9331  156.9530   -5.9225 C   0  0  0  0  0  0  0  0  0  0  0  0
   57.4597  156.2133   -4.6803 C   0  0  0  0  0  0  0  0  0  0  0  0
   53.2384  156.6803   -4.7400 N   0  0  0  0  0  0  0  0  0  0  0  0
   55.3177  156.7781   -5.8286 N   0  0  0  0  0  0  0  0  0  0  0  0
   56.0918  157.0276   -6.9612 N   0  0  0  0  0  0  0  0  0  0  0  0
   53.1448  156.0392   -2.5215 O   0  0  0  0  0  0  0  0  0  0  0  0
   53.3438  157.3153   -6.9436 O   0  0  0  0  0  0  0  0  0  0  0  0
   55.7369  155.7973   -2.6331 H   0  0  0  0  0  0  0  0  0  0  0  0
   57.7112  155.1972   -4.9697 H   0  0  0  0  0  0  0  0  0  0  0  0
   57.8487  156.4207   -3.6875 H   0  0  0  0  0  0  0  0  0  0  0  0
   57.8885  156.9155   -5.3896 H   0  0  0  0  0  0  0  0  0  0  0  0
   52.2291  156.7951   -4.7646 H   0  0  0  0  0  0  0  0  0  0  0  0
   57.0158  157.3906   -6.6943 H   0  0  0  0  0  0  0  0  0  0  0  0
   55.6694  157.7744   -7.5270 H   0  0  0  0  0  0  0  0  0  0  0  0
  1  2  2  0  0  0  0
  1  3  1  0  0  0  0
  2  5  1  0  0  0  0
  2  7  1  0  0  0  0
  3  6  1  0  0  0  0
  3  9  2  0  0  0  0
  4  6  1  0  0  0  0
  4  7  1  0  0  0  0
  4 10  2  0  0  0  0
  7  8  1  0  0  0  0
  1 11  1  0  0  0  0
  5 12  1  0  0  0  0
  5 13  1  0  0  0  0
  5 14  1  0  0  0  0
  6 15  1  0  0  0  0
  8 16  1  0  0  0  0
  8 17  1  0  0  0  0
M  END
> <FRED Chemgauss4 score>
-5.425208

$$$$
C39060929	P59181285
  -OEChem-05122015083D

 17 17  0     0  0  0  0  0  0999 V2000
   53.9361  156.3151   -6.3149 C   0  0  0  0  0  0  0  0  0  0  0  0
   55.9581  155.7188   -4.6316 C   0  0  0  0  0  0  0  0  0  0  0  0
   56.1826  156.0173   -5.9637 C   0  0  0  0  0  0  0  0  0  0  0  0
   53.6669  156.0225   -4.9899 C   0  0  0  0  0  0  0  0  0  0  0  0
   57.5719  156.0146   -6.5020 C   0  0  0  0  0  0  0  0  0  0  0  0
   55.1864  156.3185   -6.8231 N   0  0  0  0  0  0  0  0  0  0  0  0
   54.6956  155.7307   -4.1816 N   0  3  0  0  0  0  0  0  0  0  0  0
   52.3462  156.0324   -4.5089 N   0  0  0  0  0  0  0  0  0  0  0  0
   54.4839  155.4539   -2.9449 O   0  5  0  0  0  0  0  0  0  0  0  0
   58.1422  154.7218   -6.3352 O   0  0  0  0  0  0  0  0  0  0  0  0
   53.1493  156.5592   -7.0205 H   0  0  0  0  0  0  0  0  0  0  0  0
   56.7256  155.4736   -3.9144 H   0  0  0  0  0  0  0  0  0  0  0  0
   57.5897  156.2696   -7.5710 H   0  0  0  0  0  0  0  0  0  0  0  0
   58.2028  156.7476   -5.9797 H   0  0  0  0  0  0  0  0  0  0  0  0
   51.6003  156.2999   -5.1227 H   0  0  0  0  0  0  0  0  0  0  0  0
   52.1753  155.8642   -3.5357 H   0  0  0  0  0  0  0  0  0  0  0  0
   59.0415  154.7652   -6.6972 H   0  0  0  0  0  0  0  0  0  0  0  0
  1  4  1  0  0  0  0
  1  6  2  0  0  0  0
  2  3  2  0  0  0  0
  2  7  1  0  0  0  0
  3  5  1  0  0  0  0
  3  6  1  0  0  0  0
  4  7  2  0  0  0  0
  4  8  1  0  0  0  0
  5 10  1  0  0  0  0
  7  9  1  0  0  0  0
  1 11  1  0  0  0  0
  2 12  1  0  0  0  0
  5 13  1  0  0  0  0
  5 14  1  0  0  0  0
  8 15  1  0  0  0  0
  8 16  1  0  0  0  0
 10 17  1  0  0  0  0
M  CHG  2   7   1   9  -1
M  END
> <FRED Chemgauss4 score>
-5.418582

$$$$
C87971498	P137595737
  -OEChem-05122015083D

 27 27  0     1  0  0  0  0  0999 V2000
   58.7562  153.8995   -7.0611 C   0  0  0  0  0  0  0  0  0  0  0  0
   57.2665  154.1453   -6.8248 C   0  0  0  0  0  0  0  0  0  0  0  0
   59.3432  155.2361   -7.5007 C   0  0  0  0  0  0  0  0  0  0  0  0
   57.1877  155.3863   -5.9302 C   0  0  2  0  0  0  0  0  0  0  0  0
   55.8144  156.0279   -5.9153 C   0  0  0  0  0  0  0  0  0  0  0  0
   55.7005  156.7947   -3.6429 C   0  0  0  0  0  0  0  0  0  0  0  0
   54.2569  156.4563   -3.3185 C   0  0  0  0  0  0  0  0  0  0  0  0
   55.8123  157.1691   -5.0570 N   0  0  0  0  0  0  0  0  0  0  0  0
   57.8945  157.4286   -7.4844 O   0  0  0  0  0  0  0  0  0  0  0  0
   59.3041  156.8908   -5.4475 O   0  0  0  0  0  0  0  0  0  0  0  0
   53.4423  157.6004   -3.5404 O   0  0  0  0  0  0  0  0  0  0  0  0
   58.4694  156.4766   -6.5564 S   0  0  0  0  0  0  0  0  0  0  0  0
   59.2288  153.5738   -6.1266 H   0  0  0  0  0  0  0  0  0  0  0  0
   58.9275  153.1222   -7.8117 H   0  0  0  0  0  0  0  0  0  0  0  0
   56.7670  154.3240   -7.7851 H   0  0  0  0  0  0  0  0  0  0  0  0
   56.7879  153.2820   -6.3519 H   0  0  0  0  0  0  0  0  0  0  0  0
   60.4150  155.3068   -7.3045 H   0  0  0  0  0  0  0  0  0  0  0  0
   59.1435  155.4211   -8.5602 H   0  0  0  0  0  0  0  0  0  0  0  0
   57.4849  155.1173   -4.9094 H   0  0  0  0  0  0  0  0  0  0  0  0
   55.0875  155.3103   -5.5474 H   0  0  0  0  0  0  0  0  0  0  0  0
   55.5504  156.3438   -6.9196 H   0  0  0  0  0  0  0  0  0  0  0  0
   56.0573  157.6335   -3.0368 H   0  0  0  0  0  0  0  0  0  0  0  0
   56.3437  155.9271   -3.4679 H   0  0  0  0  0  0  0  0  0  0  0  0
   54.1655  156.1759   -2.2646 H   0  0  0  0  0  0  0  0  0  0  0  0
   53.8866  155.6345   -3.9400 H   0  0  0  0  0  0  0  0  0  0  0  0
   55.0252  157.7931   -5.2828 H   0  0  0  0  0  0  0  0  0  0  0  0
   52.5323  157.3422   -3.3223 H   0  0  0  0  0  0  0  0  0  0  0  0
  1  2  1  0  0  0  0
  1  3  1  0  0  0  0
  2  4  1  0  0  0  0
  3 12  1  0  0  0  0
  4  5  1  0  0  0  0
  4 12  1  0  0  0  0
  5  8  1  0  0  0  0
  6  7  1  0  0  0  0
  6  8  1  0  0  0  0
  7 11  1  0  0  0  0
  9 12  2  0  0  0  0
 10 12  2  0  0  0  0
  1 13  1  0  0  0  0
  1 14  1  0  0  0  0
  2 15  1  0  0  0  0
  2 16  1  0  0  0  0
  3 17  1  0  0  0  0
  3 18  1  0  0  0  0
  4 19  1  0  0  0  0
  5 20  1  0  0  0  0
  5 21  1  0  0  0  0
  6 22  1  0  0  0  0
  6 23  1  0  0  0  0
  7 24  1  0  0  0  0
  7 25  1  0  0  0  0
  8 26  1  0  0  0  0
 11 27  1  0  0  0  0
M  END
> <FRED Chemgauss4 score>
-5.417650

$$$$
C25629123	P37871821
  -OEChem-05122015083D

 17 17  0     1  0  0  0  0  0999 V2000
   56.6582  154.7530   -6.4801 C   0  0  0  0  0  0  0  0  0  0  0  0
   55.9981  155.9642   -6.5228 C   0  0  0  0  0  0  0  0  0  0  0  0
   56.2490  153.8848   -5.4887 C   0  0  0  0  0  0  0  0  0  0  0  0
   54.7049  155.3791   -4.7473 C   0  0  0  0  0  0  0  0  0  0  0  0
   55.0131  156.3115   -5.6688 N   0  0  0  0  0  0  0  0  0  0  0  0
   55.2720  154.1664   -4.6019 N   0  0  0  0  0  0  0  0  0  0  0  0
   56.3881  156.8848   -7.5261 N   0  0  0  0  0  0  0  0  0  0  0  0
   56.9014  152.6300   -5.4102 N   0  0  0  0  0  0  0  0  0  0  0  0
   53.8463  157.0265   -2.8490 O   0  0  0  0  0  0  0  0  0  0  0  0
   52.3432  156.2280   -4.7235 O   0  0  0  0  0  0  0  0  0  0  0  0
   53.4256  155.7893   -3.6122 S   0  0  1  0  0  0  0  0  0  0  0  0
   57.4467  154.5002   -7.1797 H   0  0  0  0  0  0  0  0  0  0  0  0
   57.1473  156.6488   -8.1278 H   0  0  0  0  0  0  0  0  0  0  0  0
   55.9586  157.7843   -7.5475 H   0  0  0  0  0  0  0  0  0  0  0  0
   57.5906  152.4016   -6.0935 H   0  0  0  0  0  0  0  0  0  0  0  0
   56.5914  151.9675   -4.7326 H   0  0  0  0  0  0  0  0  0  0  0  0
   51.5465  156.6394   -4.3132 H   0  0  0  0  0  0  0  0  0  0  0  0
  1  2  2  0  0  0  0
  1  3  1  0  0  0  0
  2  5  1  0  0  0  0
  2  7  1  0  0  0  0
  3  6  2  0  0  0  0
  3  8  1  0  0  0  0
  4  5  2  0  0  0  0
  4  6  1  0  0  0  0
  4 11  1  0  0  0  0
  9 11  2  0  0  0  0
 10 11  1  0  0  0  0
  1 12  1  0  0  0  0
  7 13  1  0  0  0  0
  7 14  1  0  0  0  0
  8 15  1  0  0  0  0
  8 16  1  0  0  0  0
 10 17  1  0  0  0  0
M  END
> <FRED Chemgauss4 score>
-5.413280

$$$$
C97248644	P154004608
  -OEChem-05122015083D

 43 44  0     1  0  0  0  0  0999 V2000
   53.9719  153.8823   -9.0598 C   0  0  0  0  0  0  0  0  0  0  0  0
   54.4696  151.8702   -7.8185 C   0  0  0  0  0  0  0  0  0  0  0  0
   54.8056  154.6115   -8.2120 C   0  0  0  0  0  0  0  0  0  0  0  0
   55.3034  152.5994   -6.9707 C   0  0  0  0  0  0  0  0  0  0  0  0
   53.8039  152.5116   -8.8630 C   0  0  0  0  0  0  0  0  0  0  0  0
   55.4714  153.9701   -7.1675 C   0  0  0  0  0  0  0  0  0  0  0  0
   55.1484  156.8337   -3.0915 C   0  0  0  0  0  0  0  0  0  0  0  0
   54.3428  155.0796   -4.4672 C   0  0  0  0  0  0  0  0  0  0  0  0
   53.8689  156.0885   -3.4328 C   0  0  1  0  0  0  0  0  0  0  0  0
   55.8598  156.9768   -4.4366 C   0  0  2  0  0  0  0  0  0  0  0  0
   55.1118  160.6049   -4.7804 C   0  0  0  0  0  0  0  0  0  0  0  0
   57.2942  159.6700   -4.4122 C   0  0  0  0  0  0  0  0  0  0  0  0
   55.4962  158.2644   -5.1636 C   0  0  0  0  0  0  0  0  0  0  0  0
   55.3746  155.8144   -5.2490 N   0  0  1  0  0  0  0  0  0  0  0  0
   52.5452  150.5010   -9.4064 N   0  0  0  0  0  0  0  0  0  0  0  0
   52.9610  151.7738   -9.7200 N   0  0  0  0  0  0  0  0  0  0  0  0
   55.8457  159.3946   -4.3651 N   0  0  0  0  0  0  0  0  0  0  0  0
   57.1540  153.9541   -5.1821 O   0  0  0  0  0  0  0  0  0  0  0  0
   57.3346  155.7728   -6.9162 O   0  0  0  0  0  0  0  0  0  0  0  0
   53.3318  155.4371   -2.2989 O   0  0  0  0  0  0  0  0  0  0  0  0
   56.5273  154.8932   -6.0926 S   0  0  0  0  0  0  0  0  0  0  0  0
   53.4577  154.3923   -9.8704 H   0  0  0  0  0  0  0  0  0  0  0  0
   54.3466  150.8022   -7.6569 H   0  0  0  0  0  0  0  0  0  0  0  0
   54.9290  155.6789   -8.3746 H   0  0  0  0  0  0  0  0  0  0  0  0
   55.8170  152.0893   -6.1601 H   0  0  0  0  0  0  0  0  0  0  0  0
   54.9034  157.8209   -2.6690 H   0  0  0  0  0  0  0  0  0  0  0  0
   55.7761  156.2962   -2.3665 H   0  0  0  0  0  0  0  0  0  0  0  0
   54.7502  154.1770   -4.0085 H   0  0  0  0  0  0  0  0  0  0  0  0
   53.5355  154.8126   -5.1534 H   0  0  0  0  0  0  0  0  0  0  0  0
   53.0965  156.7635   -3.8416 H   0  0  0  0  0  0  0  0  0  0  0  0
   56.9420  156.9055   -4.3086 H   0  0  0  0  0  0  0  0  0  0  0  0
   54.0349  160.4196   -4.7518 H   0  0  0  0  0  0  0  0  0  0  0  0
   55.3933  160.8869   -5.7986 H   0  0  0  0  0  0  0  0  0  0  0  0
   55.3438  161.4364   -4.1096 H   0  0  0  0  0  0  0  0  0  0  0  0
   57.8554  158.7830   -4.1072 H   0  0  0  0  0  0  0  0  0  0  0  0
   57.5443  160.4938   -3.7382 H   0  0  0  0  0  0  0  0  0  0  0  0
   57.5939  159.9443   -5.4272 H   0  0  0  0  0  0  0  0  0  0  0  0
   54.4272  158.2797   -5.3478 H   0  0  0  0  0  0  0  0  0  0  0  0
   56.0384  158.3145   -6.1015 H   0  0  0  0  0  0  0  0  0  0  0  0
   52.6226  149.9245  -10.2430 H   0  0  0  0  0  0  0  0  0  0  0  0
   51.5526  150.5317   -9.1772 H   0  0  0  0  0  0  0  0  0  0  0  0
   52.4934  152.2677  -10.4667 H   0  0  0  0  0  0  0  0  0  0  0  0
   53.1474  156.1278   -1.6428 H   0  0  0  0  0  0  0  0  0  0  0  0
  1  3  2  0  0  0  0
  1  5  1  0  0  0  0
  2  4  1  0  0  0  0
  2  5  2  0  0  0  0
  3  6  1  0  0  0  0
  4  6  2  0  0  0  0
  5 16  1  0  0  0  0
  6 21  1  0  0  0  0
  7  9  1  0  0  0  0
  7 10  1  0  0  0  0
  8  9  1  0  0  0  0
  8 14  1  0  0  0  0
  9 20  1  0  0  0  0
 10 13  1  0  0  0  0
 10 14  1  0  0  0  0
 11 17  1  0  0  0  0
 12 17  1  0  0  0  0
 13 17  1  0  0  0  0
 14 21  1  0  0  0  0
 15 16  1  0  0  0  0
 18 21  2  0  0  0  0
 19 21  2  0  0  0  0
  1 22  1  0  0  0  0
  2 23  1  0  0  0  0
  3 24  1  0  0  0  0
  4 25  1  0  0  0  0
  7 26  1  0  0  0  0
  7 27  1  0  0  0  0
  8 28  1  0  0  0  0
  8 29  1  0  0  0  0
  9 30  1  0  0  0  0
 10 31  1  0  0  0  0
 11 32  1  0  0  0  0
 11 33  1  0  0  0  0
 11 34  1  0  0  0  0
 12 35  1  0  0  0  0
 12 36  1  0  0  0  0
 12 37  1  0  0  0  0
 13 38  1  0  0  0  0
 13 39  1  0  0  0  0
 15 40  1  0  0  0  0
 15 41  1  0  0  0  0
 16 42  1  0  0  0  0
 20 43  1  0  0  0  0
M  END
> <FRED Chemgauss4 score>
-5.407323

$$$$
C85189699	P133308478
  -OEChem-05122015083D

 25 26  0     1  0  0  0  0  0999 V2000
   56.2403  156.8985   -5.6069 C   0  0  0  0  0  0  0  0  0  0  0  0
   57.4008  155.2331   -6.2474 C   0  0  0  0  0  0  0  0  0  0  0  0
   55.3530  155.8543   -5.7210 C   0  0  0  0  0  0  0  0  0  0  0  0
   56.3970  152.4990   -7.3614 C   0  0  0  0  0  0  0  0  0  0  0  0
   55.0615  153.0380   -7.7683 C   0  0  0  0  0  0  0  0  0  0  0  0
   55.6295  153.3907   -6.4136 C   0  0  0  0  0  0  0  0  0  0  0  0
   53.5458  155.3251   -4.0482 C   0  0  0  0  0  0  0  0  0  0  0  0
   53.8636  155.7718   -5.4774 C   0  0  2  0  0  0  0  0  0  0  0  0
   57.5133  156.5053   -5.9363 N   0  0  0  0  0  0  0  0  0  0  0  0
   56.1110  154.7944   -6.1325 N   0  0  0  0  0  0  0  0  0  0  0  0
   53.6720  156.4475   -3.1458 N   0  0  0  0  0  0  0  0  0  0  0  0
   53.3050  154.8453   -6.4094 O   0  0  0  0  0  0  0  0  0  0  0  0
   56.0294  157.9143   -5.3050 H   0  0  0  0  0  0  0  0  0  0  0  0
   58.2089  154.5865   -6.5616 H   0  0  0  0  0  0  0  0  0  0  0  0
   56.4641  151.4454   -7.1190 H   0  0  0  0  0  0  0  0  0  0  0  0
   57.2735  152.9026   -7.8537 H   0  0  0  0  0  0  0  0  0  0  0  0
   55.0396  153.8034   -8.5345 H   0  0  0  0  0  0  0  0  0  0  0  0
   54.2266  152.3487   -7.7991 H   0  0  0  0  0  0  0  0  0  0  0  0
   55.1880  152.9509   -5.5458 H   0  0  0  0  0  0  0  0  0  0  0  0
   54.2347  154.5378   -3.7231 H   0  0  0  0  0  0  0  0  0  0  0  0
   52.5250  154.9343   -3.9740 H   0  0  0  0  0  0  0  0  0  0  0  0
   53.4008  156.7450   -5.6832 H   0  0  0  0  0  0  0  0  0  0  0  0
   54.4111  157.1097   -3.2978 H   0  0  0  0  0  0  0  0  0  0  0  0
   53.1596  156.4339   -2.2825 H   0  0  0  0  0  0  0  0  0  0  0  0
   53.5012  155.1934   -7.2921 H   0  0  0  0  0  0  0  0  0  0  0  0
  1  3  2  0  0  0  0
  1  9  1  0  0  0  0
  2  9  2  0  0  0  0
  2 10  1  0  0  0  0
  3  8  1  0  0  0  0
  3 10  1  0  0  0  0
  4  5  1  0  0  0  0
  4  6  1  0  0  0  0
  5  6  1  0  0  0  0
  6 10  1  0  0  0  0
  7  8  1  0  0  0  0
  7 11  1  0  0  0  0
  8 12  1  0  0  0  0
  1 13  1  0  0  0  0
  2 14  1  0  0  0  0
  4 15  1  0  0  0  0
  4 16  1  0  0  0  0
  5 17  1  0  0  0  0
  5 18  1  0  0  0  0
  6 19  1  0  0  0  0
  7 20  1  0  0  0  0
  7 21  1  0  0  0  0
  8 22  1  0  0  0  0
 11 23  1  0  0  0  0
 11 24  1  0  0  0  0
 12 25  1  0  0  0  0
M  END
> <FRED Chemgauss4 score>
-5.407286

$$$$
C82476686	P128888928
  -OEChem-05122015083D

 31 31  0     1  0  0  0  0  0999 V2000
   53.3178  156.5365   -3.5783 C   0  0  0  0  0  0  0  0  0  0  0  0
   57.2652  155.9825   -6.3647 C   0  0  0  0  0  0  0  0  0  0  0  0
   53.1082  156.6173   -6.0579 C   0  0  0  0  0  0  0  0  0  0  0  0
   54.2789  155.6590   -6.1180 C   0  0  0  0  0  0  0  0  0  0  0  0
   54.6463  155.7832   -3.7348 C   0  0  2  0  0  0  0  0  0  0  0  0
   55.9550  157.6302   -2.6745 C   0  0  0  0  0  0  0  0  0  0  0  0
   56.1921  153.8187   -5.6061 C   0  0  0  0  0  0  0  0  0  0  0  0
   55.5835  156.1890   -2.5893 C   0  0  0  0  0  0  0  0  0  0  0  0
   56.4800  155.2755   -5.2703 C   0  0  2  0  0  0  0  0  0  0  0  0
   52.5830  156.7576   -4.7212 N   0  0  0  0  0  0  0  0  0  0  0  0
   55.2380  156.0289   -5.0680 N   0  0  1  0  0  0  0  0  0  0  0  0
   56.6508  157.0469   -6.9689 N   0  0  0  0  0  0  0  0  0  0  0  0
   52.8758  156.8465   -2.4692 O   0  0  0  0  0  0  0  0  0  0  0  0
   58.7988  155.4860   -6.8171 S   0  0  0  0  0  0  0  0  0  0  0  0
   53.4081  157.6188   -6.3874 H   0  0  0  0  0  0  0  0  0  0  0  0
   52.2925  156.2799   -6.7050 H   0  0  0  0  0  0  0  0  0  0  0  0
   53.9385  154.6225   -5.9936 H   0  0  0  0  0  0  0  0  0  0  0  0
   54.7329  155.7376   -7.1134 H   0  0  0  0  0  0  0  0  0  0  0  0
   54.4069  154.7164   -3.6217 H   0  0  0  0  0  0  0  0  0  0  0  0
   56.4564  157.8198   -3.6308 H   0  0  0  0  0  0  0  0  0  0  0  0
   56.6438  157.9070   -1.8693 H   0  0  0  0  0  0  0  0  0  0  0  0
   55.0666  158.2686   -2.6243 H   0  0  0  0  0  0  0  0  0  0  0  0
   55.6452  153.7369   -6.5513 H   0  0  0  0  0  0  0  0  0  0  0  0
   57.1262  153.2542   -5.7005 H   0  0  0  0  0  0  0  0  0  0  0  0
   55.5951  153.3278   -4.8299 H   0  0  0  0  0  0  0  0  0  0  0  0
   55.0834  155.9891   -1.6408 H   0  0  0  0  0  0  0  0  0  0  0  0
   56.4805  155.5702   -2.6354 H   0  0  0  0  0  0  0  0  0  0  0  0
   57.0266  155.3194   -4.3214 H   0  0  0  0  0  0  0  0  0  0  0  0
   51.6122  157.0364   -4.6172 H   0  0  0  0  0  0  0  0  0  0  0  0
   55.7233  157.3623   -6.7048 H   0  0  0  0  0  0  0  0  0  0  0  0
   57.1162  157.5709   -7.7025 H   0  0  0  0  0  0  0  0  0  0  0  0
  1  5  1  0  0  0  0
  1 10  1  0  0  0  0
  1 13  2  0  0  0  0
  2  9  1  0  0  0  0
  2 12  1  0  0  0  0
  2 14  2  0  0  0  0
  3  4  1  0  0  0  0
  3 10  1  0  0  0  0
  4 11  1  0  0  0  0
  5  8  1  0  0  0  0
  5 11  1  0  0  0  0
  6  8  1  0  0  0  0
  7  9  1  0  0  0  0
  9 11  1  0  0  0  0
  3 15  1  0  0  0  0
  3 16  1  0  0  0  0
  4 17  1  0  0  0  0
  4 18  1  0  0  0  0
  5 19  1  0  0  0  0
  6 20  1  0  0  0  0
  6 21  1  0  0  0  0
  6 22  1  0  0  0  0
  7 23  1  0  0  0  0
  7 24  1  0  0  0  0
  7 25  1  0  0  0  0
  8 26  1  0  0  0  0
  8 27  1  0  0  0  0
  9 28  1  0  0  0  0
 10 29  1  0  0  0  0
 12 30  1  0  0  0  0
 12 31  1  0  0  0  0
M  END
> <FRED Chemgauss4 score>
-5.404748

$$$$
C97229240	P153967145
  -OEChem-05122015083D

 27 27  0     0  0  0  0  0  0999 V2000
   59.1010  157.1873   -7.6001 C   0  0  0  0  0  0  0  0  0  0  0  0
   60.2284  156.6858   -8.2409 C   0  0  0  0  0  0  0  0  0  0  0  0
   60.3454  159.1381   -7.0502 C   0  0  0  0  0  0  0  0  0  0  0  0
   59.1523  158.4362   -6.9910 C   0  0  0  0  0  0  0  0  0  0  0  0
   61.3733  157.4662   -8.2444 C   0  0  0  0  0  0  0  0  0  0  0  0
   57.9551  159.0042   -6.2931 C   0  0  0  0  0  0  0  0  0  0  0  0
   54.4441  157.3709   -3.8220 C   0  0  0  0  0  0  0  0  0  0  0  0
   55.5299  158.1951   -3.1510 C   0  0  0  0  0  0  0  0  0  0  0  0
   61.4612  158.6837   -7.6634 N   0  0  0  0  0  0  0  0  0  0  0  0
   53.6085  156.6937   -2.8671 N   0  0  0  0  0  0  0  0  0  0  0  0
   56.3709  158.9040   -4.1322 N   0  0  0  0  0  0  0  0  0  0  0  0
   57.4406  156.7452   -5.0755 O   0  0  0  0  0  0  0  0  0  0  0  0
   58.8893  158.4549   -3.9202 O   0  0  0  0  0  0  0  0  0  0  0  0
   57.7541  158.1252   -4.7605 S   0  0  0  0  0  0  0  0  0  0  0  0
   62.8109  156.9284   -9.0105 Cl  0  0  0  0  0  0  0  0  0  0  0  0
   58.1879  156.5989   -7.5802 H   0  0  0  0  0  0  0  0  0  0  0  0
   60.1981  155.7122   -8.7189 H   0  0  0  0  0  0  0  0  0  0  0  0
   60.4454  160.1181   -6.5935 H   0  0  0  0  0  0  0  0  0  0  0  0
   57.0409  158.8791   -6.8802 H   0  0  0  0  0  0  0  0  0  0  0  0
   58.0804  160.0660   -6.0630 H   0  0  0  0  0  0  0  0  0  0  0  0
   54.8713  156.6086   -4.4813 H   0  0  0  0  0  0  0  0  0  0  0  0
   53.7925  158.0196   -4.4157 H   0  0  0  0  0  0  0  0  0  0  0  0
   55.0826  158.9550   -2.5028 H   0  0  0  0  0  0  0  0  0  0  0  0
   56.1902  157.5668   -2.5447 H   0  0  0  0  0  0  0  0  0  0  0  0
   54.0294  156.2892   -2.0459 H   0  0  0  0  0  0  0  0  0  0  0  0
   52.6636  156.4556   -3.1232 H   0  0  0  0  0  0  0  0  0  0  0  0
   56.4423  159.9164   -3.9664 H   0  0  0  0  0  0  0  0  0  0  0  0
  1  2  1  0  0  0  0
  1  4  2  0  0  0  0
  2  5  2  0  0  0  0
  3  4  1  0  0  0  0
  3  9  2  0  0  0  0
  4  6  1  0  0  0  0
  5  9  1  0  0  0  0
  5 15  1  0  0  0  0
  6 14  1  0  0  0  0
  7  8  1  0  0  0  0
  7 10  1  0  0  0  0
  8 11  1  0  0  0  0
 11 14  1  0  0  0  0
 12 14  2  0  0  0  0
 13 14  2  0  0  0  0
  1 16  1  0  0  0  0
  2 17  1  0  0  0  0
  3 18  1  0  0  0  0
  6 19  1  0  0  0  0
  6 20  1  0  0  0  0
  7 21  1  0  0  0  0
  7 22  1  0  0  0  0
  8 23  1  0  0  0  0
  8 24  1  0  0  0  0
 10 25  1  0  0  0  0
 10 26  1  0  0  0  0
 11 27  1  0  0  0  0
M  END
> <FRED Chemgauss4 score>
-5.402447

$$$$
C63065427	P96833789
  -OEChem-05122015083D

 25 25  0     1  0  0  0  0  0999 V2000
   59.2573  157.4912   -5.6982 C   0  0  0  0  0  0  0  0  0  0  0  0
   58.4715  158.2278   -4.8354 C   0  0  0  0  0  0  0  0  0  0  0  0
   58.7068  156.3066   -6.1431 C   0  0  0  0  0  0  0  0  0  0  0  0
   56.8163  156.6730   -4.9353 C   0  0  0  0  0  0  0  0  0  0  0  0
   59.4823  155.4416   -7.0789 C   0  0  0  0  0  0  0  0  0  0  0  0
   55.0323  154.8732   -5.1518 C   0  0  0  0  0  0  0  0  0  0  0  0
   55.3375  156.0945   -2.9714 C   0  0  0  0  0  0  0  0  0  0  0  0
   55.4315  156.2081   -4.5016 C   0  0  1  0  0  0  0  0  0  0  0  0
   57.2417  157.8472   -4.4316 N   0  0  0  0  0  0  0  0  0  0  0  0
   57.4845  155.8651   -5.7805 N   0  0  0  0  0  0  0  0  0  0  0  0
   55.9748  153.8017   -4.7492 N   0  0  0  0  0  0  0  0  0  0  0  0
   54.0275  155.6782   -2.6015 O   0  0  0  0  0  0  0  0  0  0  0  0
   60.2402  157.8295   -5.9997 H   0  0  0  0  0  0  0  0  0  0  0  0
   58.8195  159.1734   -4.4325 H   0  0  0  0  0  0  0  0  0  0  0  0
   60.0961  154.7267   -6.5177 H   0  0  0  0  0  0  0  0  0  0  0  0
   58.8162  154.8800   -7.7464 H   0  0  0  0  0  0  0  0  0  0  0  0
   60.1429  156.0403   -7.7193 H   0  0  0  0  0  0  0  0  0  0  0  0
   55.0103  154.9300   -6.2450 H   0  0  0  0  0  0  0  0  0  0  0  0
   54.0336  154.5728   -4.8146 H   0  0  0  0  0  0  0  0  0  0  0  0
   56.0599  155.3802   -2.5628 H   0  0  0  0  0  0  0  0  0  0  0  0
   55.5172  157.0694   -2.5054 H   0  0  0  0  0  0  0  0  0  0  0  0
   54.7068  156.9718   -4.8183 H   0  0  0  0  0  0  0  0  0  0  0  0
   56.9314  154.0398   -4.7097 H   0  0  0  0  0  0  0  0  0  0  0  0
   55.6257  152.8788   -4.7438 H   0  0  0  0  0  0  0  0  0  0  0  0
   54.0170  155.6211   -1.6330 H   0  0  0  0  0  0  0  0  0  0  0  0
  1  2  2  0  0  0  0
  1  3  1  0  0  0  0
  2  9  1  0  0  0  0
  3  5  1  0  0  0  0
  3 10  2  0  0  0  0
  4  8  1  0  0  0  0
  4  9  2  0  0  0  0
  4 10  1  0  0  0  0
  6  8  1  0  0  0  0
  6 11  1  0  0  0  0
  7  8  1  0  0  0  0
  7 12  1  0  0  0  0
  1 13  1  0  0  0  0
  2 14  1  0  0  0  0
  5 15  1  0  0  0  0
  5 16  1  0  0  0  0
  5 17  1  0  0  0  0
  6 18  1  0  0  0  0
  6 19  1  0  0  0  0
  7 20  1  0  0  0  0
  7 21  1  0  0  0  0
  8 22  1  0  0  0  0
 11 23  1  0  0  0  0
 11 24  1  0  0  0  0
 12 25  1  0  0  0  0
M  END
> <FRED Chemgauss4 score>
-5.401948

$$$$
C39064021	P59184467
  -OEChem-05122015083D

 17 17  0     0  0  0  0  0  0999 V2000
   55.8907  158.9625   -1.4781 C   0  0  0  0  0  0  0  0  0  0  0  0
   54.8468  157.5508   -2.6070 C   0  0  0  0  0  0  0  0  0  0  0  0
   53.8476  156.6505   -3.0765 C   0  0  0  0  0  0  0  0  0  0  0  0
   56.6173  157.2235   -4.3724 C   0  0  0  0  0  0  0  0  0  0  0  0
   54.7102  158.2777   -1.5223 N   0  0  0  0  0  0  0  0  0  0  0  0
   56.7492  158.7052   -2.4671 N   0  0  0  0  0  0  0  0  0  0  0  0
   56.0573  157.7994   -3.1750 N   0  0  0  0  0  0  0  0  0  0  0  0
   52.8499  155.5569   -5.0000 N   0  0  0  0  0  0  0  0  0  0  0  0
   53.7767  156.4353   -4.4690 N   0  0  0  0  0  0  0  0  0  0  0  0
   53.0531  156.0298   -2.3241 O   0  0  0  0  0  0  0  0  0  0  0  0
   56.1333  159.6713   -0.7004 H   0  0  0  0  0  0  0  0  0  0  0  0
   56.3263  157.8531   -5.2174 H   0  0  0  0  0  0  0  0  0  0  0  0
   57.7065  157.1839   -4.2825 H   0  0  0  0  0  0  0  0  0  0  0  0
   56.2314  156.2083   -4.4998 H   0  0  0  0  0  0  0  0  0  0  0  0
   53.2836  155.1301   -5.8176 H   0  0  0  0  0  0  0  0  0  0  0  0
   52.7326  154.8065   -4.3206 H   0  0  0  0  0  0  0  0  0  0  0  0
   54.4116  156.9295   -5.0866 H   0  0  0  0  0  0  0  0  0  0  0  0
  1  5  1  0  0  0  0
  1  6  2  0  0  0  0
  2  3  1  0  0  0  0
  2  5  2  0  0  0  0
  2  7  1  0  0  0  0
  3  9  1  0  0  0  0
  3 10  2  0  0  0  0
  4  7  1  0  0  0  0
  6  7  1  0  0  0  0
  8  9  1  0  0  0  0
  1 11  1  0  0  0  0
  4 12  1  0  0  0  0
  4 13  1  0  0  0  0
  4 14  1  0  0  0  0
  8 15  1  0  0  0  0
  8 16  1  0  0  0  0
  9 17  1  0  0  0  0
M  END
> <FRED Chemgauss4 score>
-5.398198

$$$$
C48630813	P72706607
  -OEChem-05122015083D

 31 31  0     1  0  0  0  0  0999 V2000
   55.4129  158.3194   -2.8132 C   0  0  0  0  0  0  0  0  0  0  0  0
   54.7928  157.5779   -4.6633 C   0  0  0  0  0  0  0  0  0  0  0  0
   53.2363  157.1263   -6.5763 C   0  0  0  0  0  0  0  0  0  0  0  0
   58.2203  159.6218   -3.2760 C   0  0  0  0  0  0  0  0  0  0  0  0
   58.2032  160.3498   -0.8821 C   0  0  0  0  0  0  0  0  0  0  0  0
   56.4878  161.2204   -2.4569 C   0  0  0  0  0  0  0  0  0  0  0  0
   54.6663  157.0405   -6.0275 C   0  0  0  0  0  0  0  0  0  0  0  0
   56.3355  158.7847   -1.6914 C   0  0  1  0  0  0  0  0  0  0  0  0
   57.3085  159.9629   -2.0807 C   0  0  0  0  0  0  0  0  0  0  0  0
   55.8934  157.8658   -4.0082 N   0  0  0  0  0  0  0  0  0  0  0  0
   54.0842  158.3303   -2.6877 N   0  0  0  0  0  0  0  0  0  0  0  0
   53.7118  157.8515   -3.8845 N   0  0  0  0  0  0  0  0  0  0  0  0
   55.5593  159.0704   -0.4728 N   0  0  0  0  0  0  0  0  0  0  0  0
   52.5343  156.6161   -5.9081 H   0  0  0  0  0  0  0  0  0  0  0  0
   53.1595  156.6642   -7.5655 H   0  0  0  0  0  0  0  0  0  0  0  0
   52.9179  158.1706   -6.6641 H   0  0  0  0  0  0  0  0  0  0  0  0
   57.6406  159.3382   -4.1605 H   0  0  0  0  0  0  0  0  0  0  0  0
   58.8371  160.4845   -3.5550 H   0  0  0  0  0  0  0  0  0  0  0  0
   58.9091  158.8044   -3.0424 H   0  0  0  0  0  0  0  0  0  0  0  0
   57.5988  160.6023   -0.0029 H   0  0  0  0  0  0  0  0  0  0  0  0
   58.8237  161.2247   -1.1021 H   0  0  0  0  0  0  0  0  0  0  0  0
   58.8652  159.5233   -0.6005 H   0  0  0  0  0  0  0  0  0  0  0  0
   55.8172  161.5130   -1.6414 H   0  0  0  0  0  0  0  0  0  0  0  0
   57.1443  162.0735   -2.6654 H   0  0  0  0  0  0  0  0  0  0  0  0
   55.8818  161.0602   -3.3546 H   0  0  0  0  0  0  0  0  0  0  0  0
   55.3394  157.5681   -6.7333 H   0  0  0  0  0  0  0  0  0  0  0  0
   54.9920  155.9816   -6.0761 H   0  0  0  0  0  0  0  0  0  0  0  0
   56.9693  157.9256   -1.4286 H   0  0  0  0  0  0  0  0  0  0  0  0
   52.7254  157.7431   -4.0892 H   0  0  0  0  0  0  0  0  0  0  0  0
   55.9920  159.6265    0.2243 H   0  0  0  0  0  0  0  0  0  0  0  0
   54.7389  158.5359   -0.3182 H   0  0  0  0  0  0  0  0  0  0  0  0
  1  8  1  0  0  0  0
  1 10  1  0  0  0  0
  1 11  2  0  0  0  0
  2  7  1  0  0  0  0
  2 10  2  0  0  0  0
  2 12  1  0  0  0  0
  3  7  1  0  0  0  0
  4  9  1  0  0  0  0
  5  9  1  0  0  0  0
  6  9  1  0  0  0  0
  8  9  1  0  0  0  0
  8 13  1  0  0  0  0
 11 12  1  0  0  0  0
  3 14  1  0  0  0  0
  3 15  1  0  0  0  0
  3 16  1  0  0  0  0
  4 17  1  0  0  0  0
  4 18  1  0  0  0  0
  4 19  1  0  0  0  0
  5 20  1  0  0  0  0
  5 21  1  0  0  0  0
  5 22  1  0  0  0  0
  6 23  1  0  0  0  0
  6 24  1  0  0  0  0
  6 25  1  0  0  0  0
  7 26  1  0  0  0  0
  7 27  1  0  0  0  0
  8 28  1  0  0  0  0
 12 29  1  0  0  0  0
 13 30  1  0  0  0  0
 13 31  1  0  0  0  0
M  END
> <FRED Chemgauss4 score>
-5.394942

$$$$
C41058832	P62326259
  -OEChem-05122015083D

 29 30  0     1  0  0  0  0  0999 V2000
   56.3231  160.8682   -3.1838 C   0  0  0  0  0  0  0  0  0  0  0  0
   55.1103  159.5165   -4.2129 C   0  0  0  0  0  0  0  0  0  0  0  0
   59.9505  161.5081   -2.2870 C   0  0  0  0  0  0  0  0  0  0  0  0
   59.2831  161.5078   -0.9110 C   0  0  0  0  0  0  0  0  0  0  0  0
   58.8609  161.1498   -3.2950 C   0  0  0  0  0  0  0  0  0  0  0  0
   57.8442  161.0583   -1.1390 C   0  0  0  0  0  0  0  0  0  0  0  0
   57.5522  161.4862   -2.5778 C   0  0  0  0  0  0  0  0  0  0  0  0
   55.5447  157.3242   -5.4024 C   0  0  0  0  0  0  0  0  0  0  0  0
   54.5256  158.4031   -4.9773 C   0  0  1  0  0  0  0  0  0  0  0  0
   56.3645  159.6846   -3.8635 N   0  0  0  0  0  0  0  0  0  0  0  0
   55.1221  161.4430   -3.0906 N   0  0  0  0  0  0  0  0  0  0  0  0
   54.3646  160.5584   -3.7568 N   0  0  0  0  0  0  0  0  0  0  0  0
   53.4375  157.7303   -4.2723 N   0  0  0  0  0  0  0  0  0  0  0  0
   60.3572  162.5142   -2.5094 H   0  0  0  0  0  0  0  0  0  0  0  0
   60.8029  160.8048   -2.3313 H   0  0  0  0  0  0  0  0  0  0  0  0
   59.8000  160.7934   -0.2460 H   0  0  0  0  0  0  0  0  0  0  0  0
   59.3379  162.4964   -0.4259 H   0  0  0  0  0  0  0  0  0  0  0  0
   58.9776  161.7101   -4.2276 H   0  0  0  0  0  0  0  0  0  0  0  0
   58.9278  160.0826   -3.5399 H   0  0  0  0  0  0  0  0  0  0  0  0
   57.7241  159.9931   -0.9514 H   0  0  0  0  0  0  0  0  0  0  0  0
   57.1878  161.6019   -0.4575 H   0  0  0  0  0  0  0  0  0  0  0  0
   57.4118  162.5866   -2.5874 H   0  0  0  0  0  0  0  0  0  0  0  0
   56.0558  156.9167   -4.5232 H   0  0  0  0  0  0  0  0  0  0  0  0
   55.0646  156.4932   -5.9313 H   0  0  0  0  0  0  0  0  0  0  0  0
   56.3056  157.7366   -6.0746 H   0  0  0  0  0  0  0  0  0  0  0  0
   54.0524  158.7652   -5.9154 H   0  0  0  0  0  0  0  0  0  0  0  0
   53.3712  160.7323   -3.8551 H   0  0  0  0  0  0  0  0  0  0  0  0
   53.2327  156.7863   -4.5181 H   0  0  0  0  0  0  0  0  0  0  0  0
   52.8160  158.2883   -3.7281 H   0  0  0  0  0  0  0  0  0  0  0  0
  1  7  1  0  0  0  0
  1 10  1  0  0  0  0
  1 11  2  0  0  0  0
  2  9  1  0  0  0  0
  2 10  2  0  0  0  0
  2 12  1  0  0  0  0
  3  4  1  0  0  0  0
  3  5  1  0  0  0  0
  4  6  1  0  0  0  0
  5  7  1  0  0  0  0
  6  7  1  0  0  0  0
  8  9  1  0  0  0  0
  9 13  1  0  0  0  0
 11 12  1  0  0  0  0
  3 14  1  0  0  0  0
  3 15  1  0  0  0  0
  4 16  1  0  0  0  0
  4 17  1  0  0  0  0
  5 18  1  0  0  0  0
  5 19  1  0  0  0  0
  6 20  1  0  0  0  0
  6 21  1  0  0  0  0
  7 22  1  0  0  0  0
  8 23  1  0  0  0  0
  8 24  1  0  0  0  0
  8 25  1  0  0  0  0
  9 26  1  0  0  0  0
 12 27  1  0  0  0  0
 13 28  1  0  0  0  0
 13 29  1  0  0  0  0
M  END
> <FRED Chemgauss4 score>
-5.393171

$$$$
C77286850	P120571487
  -OEChem-05122015083D

 30 30  0     1  0  0  0  0  0999 V2000
   54.0067  157.5443   -3.9214 C   0  0  0  0  0  0  0  0  0  0  0  0
   53.3571  157.3919   -5.2973 C   0  0  2  0  0  0  0  0  0  0  0  0
   54.2118  156.5005   -6.1989 C   0  0  2  0  0  0  0  0  0  0  0  0
   54.4824  155.1649   -5.4937 C   0  0  1  0  0  0  0  0  0  0  0  0
   54.3202  156.1721   -3.3096 C   0  0  2  0  0  0  0  0  0  0  0  0
   55.1459  156.3467   -2.0351 C   0  0  0  0  0  0  0  0  0  0  0  0
   56.8689  154.6069   -6.0628 C   0  0  0  0  0  0  0  0  0  0  0  0
   55.4063  154.2514   -6.2904 C   0  0  1  0  0  0  0  0  0  0  0  0
   55.1005  155.3837   -4.2178 O   0  0  0  0  0  0  0  0  0  0  0  0
   53.1874  158.6790   -5.8792 O   0  0  0  0  0  0  0  0  0  0  0  0
   55.4423  157.1732   -6.4716 O   0  0  0  0  0  0  0  0  0  0  0  0
   53.0887  155.5308   -2.9711 O   0  0  0  0  0  0  0  0  0  0  0  0
   57.6803  153.7433   -6.8519 O   0  0  0  0  0  0  0  0  0  0  0  0
   55.1989  152.9061   -5.8657 O   0  0  0  0  0  0  0  0  0  0  0  0
   54.9252  158.1368   -4.0261 H   0  0  0  0  0  0  0  0  0  0  0  0
   53.3371  158.1207   -3.2705 H   0  0  0  0  0  0  0  0  0  0  0  0
   52.3596  156.9512   -5.1804 H   0  0  0  0  0  0  0  0  0  0  0  0
   53.7069  156.3482   -7.1595 H   0  0  0  0  0  0  0  0  0  0  0  0
   53.5351  154.6337   -5.3369 H   0  0  0  0  0  0  0  0  0  0  0  0
   55.3666  155.3723   -1.6034 H   0  0  0  0  0  0  0  0  0  0  0  0
   54.5871  156.9393   -1.3132 H   0  0  0  0  0  0  0  0  0  0  0  0
   56.0798  156.8545   -2.2686 H   0  0  0  0  0  0  0  0  0  0  0  0
   57.0792  155.6373   -6.3680 H   0  0  0  0  0  0  0  0  0  0  0  0
   57.1498  154.4719   -5.0136 H   0  0  0  0  0  0  0  0  0  0  0  0
   55.1646  154.3017   -7.3568 H   0  0  0  0  0  0  0  0  0  0  0  0
   52.6153  159.1831   -5.2788 H   0  0  0  0  0  0  0  0  0  0  0  0
   55.8685  157.3206   -5.6142 H   0  0  0  0  0  0  0  0  0  0  0  0
   52.6467  156.1097   -2.3326 H   0  0  0  0  0  0  0  0  0  0  0  0
   58.6014  153.9967   -6.6831 H   0  0  0  0  0  0  0  0  0  0  0  0
   55.7998  152.3556   -6.3909 H   0  0  0  0  0  0  0  0  0  0  0  0
  1  2  1  0  0  0  0
  1  5  1  0  0  0  0
  2  3  1  0  0  0  0
  2 10  1  0  0  0  0
  3  4  1  0  0  0  0
  3 11  1  0  0  0  0
  4  8  1  0  0  0  0
  4  9  1  0  0  0  0
  5  6  1  0  0  0  0
  5  9  1  0  0  0  0
  5 12  1  0  0  0  0
  7  8  1  0  0  0  0
  7 13  1  0  0  0  0
  8 14  1  0  0  0  0
  1 15  1  0  0  0  0
  1 16  1  0  0  0  0
  2 17  1  0  0  0  0
  3 18  1  0  0  0  0
  4 19  1  0  0  0  0
  6 20  1  0  0  0  0
  6 21  1  0  0  0  0
  6 22  1  0  0  0  0
  7 23  1  0  0  0  0
  7 24  1  0  0  0  0
  8 25  1  0  0  0  0
 10 26  1  0  0  0  0
 11 27  1  0  0  0  0
 12 28  1  0  0  0  0
 13 29  1  0  0  0  0
 14 30  1  0  0  0  0
M  END
> <FRED Chemgauss4 score>
-5.386636

$$$$
C08466527	P151295409
  -OEChem-05122015083D

 18 18  0     0  0  0  0  0  0999 V2000
   56.2977  156.1803   -4.2375 C   0  0  0  0  0  0  0  0  0  0  0  0
   53.6774  155.5417   -4.3923 C   0  0  0  0  0  0  0  0  0  0  0  0
   54.5820  155.0677   -5.2866 C   0  0  0  0  0  0  0  0  0  0  0  0
   54.1154  156.4408   -3.2846 C   0  0  0  0  0  0  0  0  0  0  0  0
   55.1133  153.7336   -7.2524 C   0  0  0  0  0  0  0  0  0  0  0  0
   55.9274  155.4027   -5.1974 N   0  0  0  0  0  0  0  0  0  0  0  0
   55.4649  156.7090   -3.2890 N   0  0  0  0  0  0  0  0  0  0  0  0
   52.3355  155.2704   -4.3967 N   0  0  0  0  0  0  0  0  0  0  0  0
   54.1669  154.2380   -6.3066 N   0  0  0  0  0  0  0  0  0  0  0  0
   53.3306  156.8907   -2.4548 O   0  0  0  0  0  0  0  0  0  0  0  0
   57.3493  156.4812   -4.1144 H   0  0  0  0  0  0  0  0  0  0  0  0
   56.1139  154.1057   -7.0177 H   0  0  0  0  0  0  0  0  0  0  0  0
   54.8462  154.0553   -8.2627 H   0  0  0  0  0  0  0  0  0  0  0  0
   55.1289  152.6407   -7.2254 H   0  0  0  0  0  0  0  0  0  0  0  0
   55.8484  157.3136   -2.5687 H   0  0  0  0  0  0  0  0  0  0  0  0
   51.9759  154.6771   -5.1091 H   0  0  0  0  0  0  0  0  0  0  0  0
   51.7690  155.6765   -3.6874 H   0  0  0  0  0  0  0  0  0  0  0  0
   53.2043  154.0279   -6.3307 H   0  0  0  0  0  0  0  0  0  0  0  0
  1  6  2  0  0  0  0
  1  7  1  0  0  0  0
  2  3  2  0  0  0  0
  2  4  1  0  0  0  0
  2  8  1  0  0  0  0
  3  6  1  0  0  0  0
  3  9  1  0  0  0  0
  4  7  1  0  0  0  0
  4 10  2  0  0  0  0
  5  9  1  0  0  0  0
  1 11  1  0  0  0  0
  5 12  1  0  0  0  0
  5 13  1  0  0  0  0
  5 14  1  0  0  0  0
  7 15  1  0  0  0  0
  8 16  1  0  0  0  0
  8 17  1  0  0  0  0
  9 18  1  0  0  0  0
M  END
> <FRED Chemgauss4 score>
-5.384025

$$$$
C22061920	P32822128
  -OEChem-05122015083D

 21 21  0     1  0  0  0  0  0999 V2000
   55.5763  155.5286   -5.4439 C   0  0  0  0  0  0  0  0  0  0  0  0
   56.0842  156.4874   -4.3595 C   0  0  2  0  0  0  0  0  0  0  0  0
   55.4228  156.1672   -3.0230 C   0  0  2  0  0  0  0  0  0  0  0  0
   53.8895  156.2261   -3.1175 C   0  0  1  0  0  0  0  0  0  0  0  0
   53.4000  155.9257   -4.5479 C   0  0  2  0  0  0  0  0  0  0  0  0
   52.0149  155.4626   -4.5655 N   0  0  0  0  0  0  0  0  0  0  0  0
   54.2821  154.9773   -5.1529 O   0  0  0  0  0  0  0  0  0  0  0  0
   55.7639  157.8325   -4.7243 O   0  0  0  0  0  0  0  0  0  0  0  0
   55.8588  157.0755   -2.0158 O   0  0  0  0  0  0  0  0  0  0  0  0
   53.3756  155.2469   -2.2073 O   0  0  0  0  0  0  0  0  0  0  0  0
   55.5563  156.0135   -6.4389 H   0  0  0  0  0  0  0  0  0  0  0  0
   56.2815  154.6853   -5.5523 H   0  0  0  0  0  0  0  0  0  0  0  0
   57.1554  156.3991   -4.2699 H   0  0  0  0  0  0  0  0  0  0  0  0
   55.7463  155.1528   -2.6960 H   0  0  0  0  0  0  0  0  0  0  0  0
   53.5311  157.2082   -2.7927 H   0  0  0  0  0  0  0  0  0  0  0  0
   53.4440  156.8507   -5.1438 H   0  0  0  0  0  0  0  0  0  0  0  0
   51.7115  154.9245   -5.3472 H   0  0  0  0  0  0  0  0  0  0  0  0
   51.3790  155.8647   -3.9122 H   0  0  0  0  0  0  0  0  0  0  0  0
   56.2048  158.0062   -5.5718 H   0  0  0  0  0  0  0  0  0  0  0  0
   56.8200  156.9715   -1.9511 H   0  0  0  0  0  0  0  0  0  0  0  0
   53.7259  154.3915   -2.4986 H   0  0  0  0  0  0  0  0  0  0  0  0
  1  2  1  0  0  0  0
  1  7  1  0  0  0  0
  2  3  1  0  0  0  0
  2  8  1  0  0  0  0
  3  4  1  0  0  0  0
  3  9  1  0  0  0  0
  4  5  1  0  0  0  0
  4 10  1  0  0  0  0
  5  6  1  0  0  0  0
  5  7  1  0  0  0  0
  1 11  1  0  0  0  0
  1 12  1  0  0  0  0
  2 13  1  0  0  0  0
  3 14  1  0  0  0  0
  4 15  1  0  0  0  0
  5 16  1  0  0  0  0
  6 17  1  0  0  0  0
  6 18  1  0  0  0  0
  8 19  1  0  0  0  0
  9 20  1  0  0  0  0
 10 21  1  0  0  0  0
M  END
> <FRED Chemgauss4 score>
-5.382138

$$$$
C42030400	P63621419
  -OEChem-05122015083D

 32 32  0     1  0  0  0  0  0999 V2000
   58.7714  160.1725   -2.2974 C   0  0  0  0  0  0  0  0  0  0  0  0
   56.8220  159.2373   -2.4828 C   0  0  0  0  0  0  0  0  0  0  0  0
   59.9704  160.7736   -1.6868 C   0  0  0  0  0  0  0  0  0  0  0  0
   57.5470  161.1230    1.9557 C   0  0  0  0  0  0  0  0  0  0  0  0
   54.3743  158.0667   -4.3550 C   0  0  0  0  0  0  0  0  0  0  0  0
   57.6870  161.1318    0.4423 C   0  0  0  0  0  0  0  0  0  0  0  0
   57.5741  159.7226   -0.1349 C   0  0  0  0  0  0  0  0  0  0  0  0
   55.4834  158.6231   -2.0968 C   0  0  2  0  0  0  0  0  0  0  0  0
   55.0558  157.5243   -3.1003 C   0  0  1  0  0  0  0  0  0  0  0  0
   58.5401  159.9926   -3.5782 N   0  0  0  0  0  0  0  0  0  0  0  0
   57.2999  159.3976   -3.6962 N   0  0  0  0  0  0  0  0  0  0  0  0
   57.7157  159.7113   -1.5710 N   0  0  0  0  0  0  0  0  0  0  0  0
   54.4638  159.6695   -1.9640 N   0  0  0  0  0  0  0  0  0  0  0  0
   54.1258  156.6431   -2.4611 O   0  0  0  0  0  0  0  0  0  0  0  0
   59.8562  161.8648   -1.5722 H   0  0  0  0  0  0  0  0  0  0  0  0
   60.1835  160.3542   -0.6878 H   0  0  0  0  0  0  0  0  0  0  0  0
   60.8783  160.5951   -2.2898 H   0  0  0  0  0  0  0  0  0  0  0  0
   58.3077  160.4845    2.4160 H   0  0  0  0  0  0  0  0  0  0  0  0
   56.5627  160.7402    2.2432 H   0  0  0  0  0  0  0  0  0  0  0  0
   57.6518  162.1328    2.3651 H   0  0  0  0  0  0  0  0  0  0  0  0
   53.5066  158.6867   -4.1130 H   0  0  0  0  0  0  0  0  0  0  0  0
   54.0524  157.2498   -5.0102 H   0  0  0  0  0  0  0  0  0  0  0  0
   55.0762  158.6761   -4.9354 H   0  0  0  0  0  0  0  0  0  0  0  0
   56.9130  161.7784    0.0118 H   0  0  0  0  0  0  0  0  0  0  0  0
   58.6535  161.5736    0.1713 H   0  0  0  0  0  0  0  0  0  0  0  0
   56.6028  159.2750    0.1074 H   0  0  0  0  0  0  0  0  0  0  0  0
   58.3458  159.0640    0.2810 H   0  0  0  0  0  0  0  0  0  0  0  0
   55.5981  158.1526   -1.1110 H   0  0  0  0  0  0  0  0  0  0  0  0
   55.9133  156.9143   -3.4065 H   0  0  0  0  0  0  0  0  0  0  0  0
   54.7528  160.5553   -1.6184 H   0  0  0  0  0  0  0  0  0  0  0  0
   53.5103  159.3964   -2.0270 H   0  0  0  0  0  0  0  0  0  0  0  0
   53.9327  155.9440   -3.1020 H   0  0  0  0  0  0  0  0  0  0  0  0
  1  3  1  0  0  0  0
  1 10  2  0  0  0  0
  1 12  1  0  0  0  0
  2  8  1  0  0  0  0
  2 11  2  0  0  0  0
  2 12  1  0  0  0  0
  4  6  1  0  0  0  0
  5  9  1  0  0  0  0
  6  7  1  0  0  0  0
  7 12  1  0  0  0  0
  8  9  1  0  0  0  0
  8 13  1  0  0  0  0
  9 14  1  0  0  0  0
 10 11  1  0  0  0  0
  3 15  1  0  0  0  0
  3 16  1  0  0  0  0
  3 17  1  0  0  0  0
  4 18  1  0  0  0  0
  4 19  1  0  0  0  0
  4 20  1  0  0  0  0
  5 21  1  0  0  0  0
  5 22  1  0  0  0  0
  5 23  1  0  0  0  0
  6 24  1  0  0  0  0
  6 25  1  0  0  0  0
  7 26  1  0  0  0  0
  7 27  1  0  0  0  0
  8 28  1  0  0  0  0
  9 29  1  0  0  0  0
 13 30  1  0  0  0  0
 13 31  1  0  0  0  0
 14 32  1  0  0  0  0
M  END
> <FRED Chemgauss4 score>
-5.382038

$$$$
C42973221	P64975400
  -OEChem-05122015083D

 30 31  0     1  0  0  0  0  0999 V2000
   55.3559  155.1383   -6.5179 C   0  0  0  0  0  0  0  0  0  0  0  0
   55.0630  156.4356   -6.0977 C   0  0  0  0  0  0  0  0  0  0  0  0
   56.6700  154.6721   -6.4777 C   0  0  0  0  0  0  0  0  0  0  0  0
   57.3982  156.8008   -5.5972 C   0  0  0  0  0  0  0  0  0  0  0  0
   56.4016  158.6435   -1.6732 C   0  0  0  0  0  0  0  0  0  0  0  0
   57.2446  159.7726   -3.3612 C   0  0  0  0  0  0  0  0  0  0  0  0
   56.0841  157.2669   -5.6373 C   0  0  0  0  0  0  0  0  0  0  0  0
   57.6911  155.5034   -6.0173 C   0  0  0  0  0  0  0  0  0  0  0  0
   57.3573  159.6240   -2.0004 C   0  0  0  0  0  0  0  0  0  0  0  0
   54.1022  160.6437   -5.3378 C   0  0  0  0  0  0  0  0  0  0  0  0
   55.7616  158.6889   -5.1769 C   0  0  1  0  0  0  0  0  0  0  0  0
   54.2708  159.1190   -5.3653 C   0  0  1  0  0  0  0  0  0  0  0  0
   55.7311  158.2006   -2.7401 N   0  0  0  0  0  0  0  0  0  0  0  0
   56.2662  158.9061   -3.7510 N   0  0  0  0  0  0  0  0  0  0  0  0
   53.4352  158.5730   -4.2861 N   0  0  0  0  0  0  0  0  0  0  0  0
   58.9531  155.0561   -5.9790 F   0  0  0  0  0  0  0  0  0  0  0  0
   58.3965  160.4205   -0.9326 Cl  0  0  0  0  0  0  0  0  0  0  0  0
   54.5608  154.4907   -6.8759 H   0  0  0  0  0  0  0  0  0  0  0  0
   54.0361  156.7902   -6.1328 H   0  0  0  0  0  0  0  0  0  0  0  0
   56.8980  153.6623   -6.8053 H   0  0  0  0  0  0  0  0  0  0  0  0
   58.2003  157.4408   -5.2395 H   0  0  0  0  0  0  0  0  0  0  0  0
   56.1630  158.2305   -0.7030 H   0  0  0  0  0  0  0  0  0  0  0  0
   57.7637  160.4052   -4.0685 H   0  0  0  0  0  0  0  0  0  0  0  0
   54.4826  161.0728   -4.4058 H   0  0  0  0  0  0  0  0  0  0  0  0
   54.6605  161.1154   -6.1549 H   0  0  0  0  0  0  0  0  0  0  0  0
   53.0500  160.9329   -5.4393 H   0  0  0  0  0  0  0  0  0  0  0  0
   56.3406  159.3664   -5.8246 H   0  0  0  0  0  0  0  0  0  0  0  0
   53.8738  158.7500   -6.3177 H   0  0  0  0  0  0  0  0  0  0  0  0
   53.6394  157.6560   -3.9662 H   0  0  0  0  0  0  0  0  0  0  0  0
   52.5928  159.0515   -4.0707 H   0  0  0  0  0  0  0  0  0  0  0  0
  1  2  2  0  0  0  0
  1  3  1  0  0  0  0
  2  7  1  0  0  0  0
  3  8  2  0  0  0  0
  4  7  2  0  0  0  0
  4  8  1  0  0  0  0
  5  9  1  0  0  0  0
  5 13  2  0  0  0  0
  6  9  2  0  0  0  0
  6 14  1  0  0  0  0
  7 11  1  0  0  0  0
  8 16  1  0  0  0  0
  9 17  1  0  0  0  0
 10 12  1  0  0  0  0
 11 12  1  0  0  0  0
 11 14  1  0  0  0  0
 12 15  1  0  0  0  0
 13 14  1  0  0  0  0
  1 18  1  0  0  0  0
  2 19  1  0  0  0  0
  3 20  1  0  0  0  0
  4 21  1  0  0  0  0
  5 22  1  0  0  0  0
  6 23  1  0  0  0  0
 10 24  1  0  0  0  0
 10 25  1  0  0  0  0
 10 26  1  0  0  0  0
 11 27  1  0  0  0  0
 12 28  1  0  0  0  0
 15 29  1  0  0  0  0
 15 30  1  0  0  0  0
M  END
> <FRED Chemgauss4 score>
-5.380832

$$$$
C88061774	P137749499
  -OEChem-05122015083D

 26 25  0     0  0  0  0  0  0999 V2000
   54.7948  152.2852   -7.8537 C   0  0  0  0  0  0  0  0  0  0  0  0
   52.8732  151.6794   -9.3144 C   0  0  0  0  0  0  0  0  0  0  0  0
   55.5007  153.5048   -7.2832 C   0  0  0  0  0  0  0  0  0  0  0  0
   54.0049  156.0352   -3.4934 C   0  0  0  0  0  0  0  0  0  0  0  0
   54.6019  154.3853   -6.4314 C   0  0  0  0  0  0  0  0  0  0  0  0
   54.2033  156.6481   -4.8664 C   0  0  0  0  0  0  0  0  0  0  0  0
   53.0221  156.7439   -2.7200 N   0  0  0  0  0  0  0  0  0  0  0  0
   53.7271  152.6459   -8.6631 N   0  0  0  0  0  0  0  0  0  0  0  0
   55.1320  151.1318   -7.6013 O   0  0  0  0  0  0  0  0  0  0  0  0
   55.8008  156.6527   -6.9354 O   0  0  0  0  0  0  0  0  0  0  0  0
   56.4719  155.3496   -4.8804 O   0  0  0  0  0  0  0  0  0  0  0  0
   55.4516  155.8034   -5.8097 S   0  0  0  0  0  0  0  0  0  0  0  0
   53.2718  151.4307  -10.3014 H   0  0  0  0  0  0  0  0  0  0  0  0
   51.8652  152.0857   -9.4342 H   0  0  0  0  0  0  0  0  0  0  0  0
   52.8139  150.7650   -8.7181 H   0  0  0  0  0  0  0  0  0  0  0  0
   56.3717  153.1743   -6.7050 H   0  0  0  0  0  0  0  0  0  0  0  0
   55.8670  154.0891   -8.1361 H   0  0  0  0  0  0  0  0  0  0  0  0
   53.6817  154.9919   -3.5619 H   0  0  0  0  0  0  0  0  0  0  0  0
   54.9406  156.0700   -2.9270 H   0  0  0  0  0  0  0  0  0  0  0  0
   54.1907  153.8508   -5.5703 H   0  0  0  0  0  0  0  0  0  0  0  0
   53.7715  154.7701   -7.0316 H   0  0  0  0  0  0  0  0  0  0  0  0
   54.5385  157.6856   -4.7755 H   0  0  0  0  0  0  0  0  0  0  0  0
   53.2836  156.6247   -5.4587 H   0  0  0  0  0  0  0  0  0  0  0  0
   53.0734  156.7148   -1.7138 H   0  0  0  0  0  0  0  0  0  0  0  0
   52.1900  157.0846   -3.1755 H   0  0  0  0  0  0  0  0  0  0  0  0
   53.5373  153.6338   -8.8041 H   0  0  0  0  0  0  0  0  0  0  0  0
  1  3  1  0  0  0  0
  1  8  1  0  0  0  0
  1  9  2  0  0  0  0
  2  8  1  0  0  0  0
  3  5  1  0  0  0  0
  4  6  1  0  0  0  0
  4  7  1  0  0  0  0
  5 12  1  0  0  0  0
  6 12  1  0  0  0  0
 10 12  2  0  0  0  0
 11 12  2  0  0  0  0
  2 13  1  0  0  0  0
  2 14  1  0  0  0  0
  2 15  1  0  0  0  0
  3 16  1  0  0  0  0
  3 17  1  0  0  0  0
  4 18  1  0  0  0  0
  4 19  1  0  0  0  0
  5 20  1  0  0  0  0
  5 21  1  0  0  0  0
  6 22  1  0  0  0  0
  6 23  1  0  0  0  0
  7 24  1  0  0  0  0
  7 25  1  0  0  0  0
  8 26  1  0  0  0  0
M  END
> <FRED Chemgauss4 score>
-5.379781

$$$$
C85254231	P133394284
  -OEChem-05122015083D

 28 28  0     1  0  0  0  0  0999 V2000
   59.0976  156.7999   -8.4750 C   0  0  0  0  0  0  0  0  0  0  0  0
   59.0822  157.1957   -6.3091 C   0  0  0  0  0  0  0  0  0  0  0  0
   58.3834  158.1395   -8.3549 C   0  0  0  0  0  0  0  0  0  0  0  0
   58.2544  158.3188   -6.8567 C   0  0  1  0  0  0  0  0  0  0  0  0
   54.2672  155.2954   -6.1845 C   0  0  0  0  0  0  0  0  0  0  0  0
   56.3233  156.7790   -6.5226 C   0  0  0  0  0  0  0  0  0  0  0  0
   54.6203  157.2927   -4.7212 C   0  0  0  0  0  0  0  0  0  0  0  0
   54.8390  156.7149   -6.1298 C   0  0  2  0  0  0  0  0  0  0  0  0
   59.4790  156.3461   -7.3156 N   0  0  0  0  0  0  0  0  0  0  0  0
   56.8418  158.1684   -6.4373 N   0  3  0  0  0  0  0  0  0  0  0  0
   59.2602  156.2996   -9.6041 O   0  5  0  0  0  0  0  0  0  0  0  0
   59.3206  157.0491   -5.1167 O   0  0  0  0  0  0  0  0  0  0  0  0
   53.3264  156.9493   -4.2376 O   0  0  0  0  0  0  0  0  0  0  0  0
   54.0847  157.5124   -7.0492 O   0  0  0  0  0  0  0  0  0  0  0  0
   59.0206  158.9211   -8.7861 H   0  0  0  0  0  0  0  0  0  0  0  0
   57.4253  158.1340   -8.8860 H   0  0  0  0  0  0  0  0  0  0  0  0
   58.6100  159.2939   -6.5125 H   0  0  0  0  0  0  0  0  0  0  0  0
   53.2094  155.2744   -5.9009 H   0  0  0  0  0  0  0  0  0  0  0  0
   54.8217  154.6137   -5.5314 H   0  0  0  0  0  0  0  0  0  0  0  0
   54.3075  154.9011   -7.2069 H   0  0  0  0  0  0  0  0  0  0  0  0
   56.9503  156.1708   -5.8633 H   0  0  0  0  0  0  0  0  0  0  0  0
   56.4820  156.4752   -7.5621 H   0  0  0  0  0  0  0  0  0  0  0  0
   54.6834  158.3862   -4.7370 H   0  0  0  0  0  0  0  0  0  0  0  0
   55.3628  156.9017   -4.0174 H   0  0  0  0  0  0  0  0  0  0  0  0
   56.7402  158.5088   -5.4708 H   0  0  0  0  0  0  0  0  0  0  0  0
   56.2527  158.7857   -7.0137 H   0  0  0  0  0  0  0  0  0  0  0  0
   53.2481  157.3386   -3.3524 H   0  0  0  0  0  0  0  0  0  0  0  0
   54.2033  157.1055   -7.9193 H   0  0  0  0  0  0  0  0  0  0  0  0
  1  3  1  0  0  0  0
  1  9  2  0  0  0  0
  1 11  1  0  0  0  0
  2  4  1  0  0  0  0
  2  9  1  0  0  0  0
  2 12  2  0  0  0  0
  3  4  1  0  0  0  0
  4 10  1  0  0  0  0
  5  8  1  0  0  0  0
  6  8  1  0  0  0  0
  6 10  1  0  0  0  0
  7  8  1  0  0  0  0
  7 13  1  0  0  0  0
  8 14  1  0  0  0  0
  3 15  1  0  0  0  0
  3 16  1  0  0  0  0
  4 17  1  0  0  0  0
  5 18  1  0  0  0  0
  5 19  1  0  0  0  0
  5 20  1  0  0  0  0
  6 21  1  0  0  0  0
  6 22  1  0  0  0  0
  7 23  1  0  0  0  0
  7 24  1  0  0  0  0
 10 25  1  0  0  0  0
 10 26  1  0  0  0  0
 13 27  1  0  0  0  0
 14 28  1  0  0  0  0
M  CHG  2  10   1  11  -1
M  END
> <FRED Chemgauss4 score>
-5.379302

$$$$
C85549993	P133918258
  -OEChem-05122015083D

 30 30  0     1  0  0  0  0  0999 V2000
   56.7329  154.3624   -6.0923 C   0  0  0  0  0  0  0  0  0  0  0  0
   56.6120  155.7352   -6.0383 C   0  0  0  0  0  0  0  0  0  0  0  0
   54.7603  155.1996   -4.9923 C   0  0  0  0  0  0  0  0  0  0  0  0
   62.0123  157.0526   -8.7725 C   0  0  0  0  0  0  0  0  0  0  0  0
   53.6222  155.3860   -2.7389 C   0  0  0  0  0  0  0  0  0  0  0  0
   57.5921  156.7245   -6.5994 C   0  0  0  0  0  0  0  0  0  0  0  0
   60.7311  156.2430   -8.6311 C   0  0  0  0  0  0  0  0  0  0  0  0
   59.7393  156.8747   -7.6616 C   0  0  0  0  0  0  0  0  0  0  0  0
   53.4747  155.3241   -4.2714 C   0  0  1  0  0  0  0  0  0  0  0  0
   55.4812  156.2171   -5.4083 N   0  0  0  0  0  0  0  0  0  0  0  0
   52.6953  156.4798   -4.6981 N   0  0  0  0  0  0  0  0  0  0  0  0
   58.5417  156.0941   -7.5180 N   0  0  0  0  0  0  0  0  0  0  0  0
   55.3827  153.6353   -5.3245 S   0  0  0  0  0  0  0  0  0  0  0  0
   57.5226  153.7681   -6.5301 H   0  0  0  0  0  0  0  0  0  0  0  0
   61.7991  158.0646   -9.1312 H   0  0  0  0  0  0  0  0  0  0  0  0
   62.5140  157.1359   -7.8030 H   0  0  0  0  0  0  0  0  0  0  0  0
   62.7088  156.5786   -9.4709 H   0  0  0  0  0  0  0  0  0  0  0  0
   54.2648  156.2249   -2.4500 H   0  0  0  0  0  0  0  0  0  0  0  0
   52.6532  155.5146   -2.2437 H   0  0  0  0  0  0  0  0  0  0  0  0
   54.0673  154.4669   -2.3413 H   0  0  0  0  0  0  0  0  0  0  0  0
   57.0702  157.5177   -7.1457 H   0  0  0  0  0  0  0  0  0  0  0  0
   58.1673  157.2041   -5.8005 H   0  0  0  0  0  0  0  0  0  0  0  0
   60.9884  155.2402   -8.2710 H   0  0  0  0  0  0  0  0  0  0  0  0
   60.2690  156.1247   -9.6184 H   0  0  0  0  0  0  0  0  0  0  0  0
   60.1886  156.9569   -6.6669 H   0  0  0  0  0  0  0  0  0  0  0  0
   59.4484  157.8781   -7.9882 H   0  0  0  0  0  0  0  0  0  0  0  0
   52.8169  154.4580   -4.4869 H   0  0  0  0  0  0  0  0  0  0  0  0
   52.0215  156.8543   -4.0641 H   0  0  0  0  0  0  0  0  0  0  0  0
   52.7114  156.7285   -5.6647 H   0  0  0  0  0  0  0  0  0  0  0  0
   58.0812  155.9789   -8.4280 H   0  0  0  0  0  0  0  0  0  0  0  0
  1  2  2  0  0  0  0
  1 13  1  0  0  0  0
  2  6  1  0  0  0  0
  2 10  1  0  0  0  0
  3  9  1  0  0  0  0
  3 10  2  0  0  0  0
  3 13  1  0  0  0  0
  4  7  1  0  0  0  0
  5  9  1  0  0  0  0
  6 12  1  0  0  0  0
  7  8  1  0  0  0  0
  8 12  1  0  0  0  0
  9 11  1  0  0  0  0
  1 14  1  0  0  0  0
  4 15  1  0  0  0  0
  4 16  1  0  0  0  0
  4 17  1  0  0  0  0
  5 18  1  0  0  0  0
  5 19  1  0  0  0  0
  5 20  1  0  0  0  0
  6 21  1  0  0  0  0
  6 22  1  0  0  0  0
  7 23  1  0  0  0  0
  7 24  1  0  0  0  0
  8 25  1  0  0  0  0
  8 26  1  0  0  0  0
  9 27  1  0  0  0  0
 11 28  1  0  0  0  0
 11 29  1  0  0  0  0
 12 30  1  0  0  0  0
M  END
> <FRED Chemgauss4 score>
-5.374345

$$$$
C82987727	P129755431
  -OEChem-05122015083D

 28 27  0     1  0  0  0  0  0999 V2000
   55.4255  155.9332   -5.5579 C   0  0  0  0  0  0  0  0  0  0  0  0
   57.0161  160.3211    0.7723 C   0  0  0  0  0  0  0  0  0  0  0  0
   55.8033  158.9337   -0.6861 C   0  0  0  0  0  0  0  0  0  0  0  0
   55.9466  157.8124   -1.6971 C   0  0  0  0  0  0  0  0  0  0  0  0
   53.3815  155.7282   -3.2218 C   0  0  0  0  0  0  0  0  0  0  0  0
   55.2270  157.0207   -4.4974 C   0  0  2  0  0  0  0  0  0  0  0  0
   54.7470  156.4186   -3.1603 C   0  0  1  0  0  0  0  0  0  0  0  0
   54.2706  158.0008   -5.0121 N   0  0  0  0  0  0  0  0  0  0  0  0
   53.0372  155.2014   -1.9465 O   0  0  0  0  0  0  0  0  0  0  0  0
   57.0874  159.2577   -0.1671 O   0  0  0  0  0  0  0  0  0  0  0  0
   54.6644  157.4757   -2.1993 O   0  0  0  0  0  0  0  0  0  0  0  0
   54.4905  155.3983   -5.7547 H   0  0  0  0  0  0  0  0  0  0  0  0
   55.7779  156.3569   -6.5050 H   0  0  0  0  0  0  0  0  0  0  0  0
   56.1599  155.1903   -5.2264 H   0  0  0  0  0  0  0  0  0  0  0  0
   58.0174  160.5429    1.1495 H   0  0  0  0  0  0  0  0  0  0  0  0
   56.3591  160.0358    1.5979 H   0  0  0  0  0  0  0  0  0  0  0  0
   56.6114  161.2067    0.2767 H   0  0  0  0  0  0  0  0  0  0  0  0
   55.1641  158.6322    0.1494 H   0  0  0  0  0  0  0  0  0  0  0  0
   55.3906  159.8279   -1.1622 H   0  0  0  0  0  0  0  0  0  0  0  0
   56.3777  156.9182   -1.2361 H   0  0  0  0  0  0  0  0  0  0  0  0
   56.5707  158.1315   -2.5369 H   0  0  0  0  0  0  0  0  0  0  0  0
   52.5986  156.4269   -3.5318 H   0  0  0  0  0  0  0  0  0  0  0  0
   53.4052  154.8937   -3.9306 H   0  0  0  0  0  0  0  0  0  0  0  0
   56.1970  157.5119   -4.3517 H   0  0  0  0  0  0  0  0  0  0  0  0
   55.4892  155.7026   -2.7858 H   0  0  0  0  0  0  0  0  0  0  0  0
   54.2664  158.1785   -5.9918 H   0  0  0  0  0  0  0  0  0  0  0  0
   53.8109  158.5927   -4.3564 H   0  0  0  0  0  0  0  0  0  0  0  0
   52.1690  154.7785   -2.0442 H   0  0  0  0  0  0  0  0  0  0  0  0
  1  6  1  0  0  0  0
  2 10  1  0  0  0  0
  3  4  1  0  0  0  0
  3 10  1  0  0  0  0
  4 11  1  0  0  0  0
  5  7  1  0  0  0  0
  5  9  1  0  0  0  0
  6  7  1  0  0  0  0
  6  8  1  0  0  0  0
  7 11  1  0  0  0  0
  1 12  1  0  0  0  0
  1 13  1  0  0  0  0
  1 14  1  0  0  0  0
  2 15  1  0  0  0  0
  2 16  1  0  0  0  0
  2 17  1  0  0  0  0
  3 18  1  0  0  0  0
  3 19  1  0  0  0  0
  4 20  1  0  0  0  0
  4 21  1  0  0  0  0
  5 22  1  0  0  0  0
  5 23  1  0  0  0  0
  6 24  1  0  0  0  0
  7 25  1  0  0  0  0
  8 26  1  0  0  0  0
  8 27  1  0  0  0  0
  9 28  1  0  0  0  0
M  END
> <FRED Chemgauss4 score>
-5.373302

$$$$
C20286247	P30221172
  -OEChem-05122015083D

 17 17  0     0  0  0  0  0  0999 V2000
   54.5225  155.5684   -5.2405 C   0  0  0  0  0  0  0  0  0  0  0  0
   55.0246  156.3524   -6.2164 C   0  0  0  0  0  0  0  0  0  0  0  0
   55.3823  154.3535   -5.2278 C   0  0  0  0  0  0  0  0  0  0  0  0
   53.3863  155.8336   -4.3725 C   0  0  0  0  0  0  0  0  0  0  0  0
   56.4582  154.4587   -6.2814 C   0  0  0  0  0  0  0  0  0  0  0  0
   56.1152  155.7491   -6.8187 N   0  0  0  0  0  0  0  0  0  0  0  0
   54.5440  157.5763   -6.5795 N   0  0  0  0  0  0  0  0  0  0  0  0
   52.1977  156.0149   -5.0488 N   0  0  0  0  0  0  0  0  0  0  0  0
   55.2292  153.4113   -4.4670 O   0  0  0  0  0  0  0  0  0  0  0  0
   53.4962  155.8871   -3.1438 O   0  0  0  0  0  0  0  0  0  0  0  0
   57.4491  154.4640   -5.8227 H   0  0  0  0  0  0  0  0  0  0  0  0
   56.3472  153.6693   -7.0275 H   0  0  0  0  0  0  0  0  0  0  0  0
   56.6123  156.2041   -7.5726 H   0  0  0  0  0  0  0  0  0  0  0  0
   53.7536  157.9419   -6.0944 H   0  0  0  0  0  0  0  0  0  0  0  0
   54.9978  158.0674   -7.3187 H   0  0  0  0  0  0  0  0  0  0  0  0
   52.1956  155.9539   -6.0617 H   0  0  0  0  0  0  0  0  0  0  0  0
   51.3249  156.2073   -4.5670 H   0  0  0  0  0  0  0  0  0  0  0  0
  1  2  2  0  0  0  0
  1  3  1  0  0  0  0
  1  4  1  0  0  0  0
  2  6  1  0  0  0  0
  2  7  1  0  0  0  0
  3  5  1  0  0  0  0
  3  9  2  0  0  0  0
  4  8  1  0  0  0  0
  4 10  2  0  0  0  0
  5  6  1  0  0  0  0
  5 11  1  0  0  0  0
  5 12  1  0  0  0  0
  6 13  1  0  0  0  0
  7 14  1  0  0  0  0
  7 15  1  0  0  0  0
  8 16  1  0  0  0  0
  8 17  1  0  0  0  0
M  END
> <FRED Chemgauss4 score>
-5.372496

$$$$
C02278807	P06824920
  -OEChem-05122015083D

 26 26  0     1  0  0  0  0  0999 V2000
   59.3683  159.3452   -2.4790 C   0  0  0  0  0  0  0  0  0  0  0  0
   58.5456  162.2952   -3.3540 C   0  0  0  0  0  0  0  0  0  0  0  0
   57.5147  161.4464   -1.3135 C   0  0  0  0  0  0  0  0  0  0  0  0
   58.1844  159.8796   -3.0589 C   0  0  0  0  0  0  0  0  0  0  0  0
   57.4071  159.2133   -3.9412 C   0  0  0  0  0  0  0  0  0  0  0  0
   54.1558  159.1340   -4.2896 C   0  0  0  0  0  0  0  0  0  0  0  0
   56.2744  161.2770   -3.5361 C   0  0  1  0  0  0  0  0  0  0  0  0
   57.6485  161.2803   -2.7723 C   0  0  0  0  0  0  0  0  0  0  0  0
   56.0089  162.4716   -4.4494 C   0  0  0  0  0  0  0  0  0  0  0  0
   60.3340  158.9095   -2.0062 N   0  0  0  0  0  0  0  0  0  0  0  0
   59.2517  163.0940   -3.8117 N   0  0  0  0  0  0  0  0  0  0  0  0
   57.4094  161.5771   -0.1655 N   0  0  0  0  0  0  0  0  0  0  0  0
   56.3405  160.0291   -4.2944 N   0  0  2  0  0  0  0  0  0  0  0  0
   57.6220  157.9469   -4.4051 N   0  0  0  0  0  0  0  0  0  0  0  0
   53.1230  158.7522   -5.1269 N   0  0  0  0  0  0  0  0  0  0  0  0
   55.2416  159.6136   -4.9968 N   0  0  0  0  0  0  0  0  0  0  0  0
   54.0862  159.0450   -3.0644 O   0  0  0  0  0  0  0  0  0  0  0  0
   55.4429  161.2004   -2.8206 H   0  0  0  0  0  0  0  0  0  0  0  0
   56.8184  162.5724   -5.1706 H   0  0  0  0  0  0  0  0  0  0  0  0
   55.9442  163.3826   -3.8566 H   0  0  0  0  0  0  0  0  0  0  0  0
   55.0713  162.3266   -4.9839 H   0  0  0  0  0  0  0  0  0  0  0  0
   58.4196  157.4488   -4.0765 H   0  0  0  0  0  0  0  0  0  0  0  0
   56.9744  157.5624   -5.0569 H   0  0  0  0  0  0  0  0  0  0  0  0
   53.2000  158.8329   -6.1353 H   0  0  0  0  0  0  0  0  0  0  0  0
   52.2559  158.3782   -4.7563 H   0  0  0  0  0  0  0  0  0  0  0  0
   55.2937  159.6844   -6.0050 H   0  0  0  0  0  0  0  0  0  0  0  0
  1  4  1  0  0  0  0
  1 10  3  0  0  0  0
  2  8  1  0  0  0  0
  2 11  3  0  0  0  0
  3  8  1  0  0  0  0
  3 12  3  0  0  0  0
  4  5  2  0  0  0  0
  4  8  1  0  0  0  0
  5 13  1  0  0  0  0
  5 14  1  0  0  0  0
  6 15  1  0  0  0  0
  6 16  1  0  0  0  0
  6 17  2  0  0  0  0
  7  8  1  0  0  0  0
  7  9  1  0  0  0  0
  7 13  1  0  0  0  0
 13 16  1  0  0  0  0
  7 18  1  0  0  0  0
  9 19  1  0  0  0  0
  9 20  1  0  0  0  0
  9 21  1  0  0  0  0
 14 22  1  0  0  0  0
 14 23  1  0  0  0  0
 15 24  1  0  0  0  0
 15 25  1  0  0  0  0
 16 26  1  0  0  0  0
M  END
> <FRED Chemgauss4 score>
-5.372301

$$$$
C82410021	P128783110
  -OEChem-05122015083D

 21 21  0     1  0  0  0  0  0999 V2000
   53.2231  157.1642   -7.2431 C   0  0  0  0  0  0  0  0  0  0  0  0
   54.4472  155.6991   -6.3019 C   0  0  0  0  0  0  0  0  0  0  0  0
   53.3904  155.9003   -5.4456 C   0  0  0  0  0  0  0  0  0  0  0  0
   55.5920  154.7881   -6.1444 C   0  0  0  0  0  0  0  0  0  0  0  0
   53.5663  156.1386   -2.9441 C   0  0  0  0  0  0  0  0  0  0  0  0
   53.0284  155.3002   -4.1064 C   0  0  1  0  0  0  0  0  0  0  0  0
   54.3372  156.4891   -7.4189 N   0  0  0  0  0  0  0  0  0  0  0  0
   52.6150  156.8417   -6.0618 N   0  0  0  0  0  0  0  0  0  0  0  0
   53.1940  155.5282   -1.6876 N   0  0  0  0  0  0  0  0  0  0  0  0
   51.6057  155.2127   -4.0209 O   0  0  0  0  0  0  0  0  0  0  0  0
   52.8064  157.8934   -7.9231 H   0  0  0  0  0  0  0  0  0  0  0  0
   55.3778  153.7951   -6.5766 H   0  0  0  0  0  0  0  0  0  0  0  0
   56.5039  155.1734   -6.6354 H   0  0  0  0  0  0  0  0  0  0  0  0
   55.8629  154.6364   -5.0837 H   0  0  0  0  0  0  0  0  0  0  0  0
   53.1562  157.1540   -2.9730 H   0  0  0  0  0  0  0  0  0  0  0  0
   54.6586  156.2130   -2.9828 H   0  0  0  0  0  0  0  0  0  0  0  0
   53.4126  154.2744   -4.0449 H   0  0  0  0  0  0  0  0  0  0  0  0
   51.7488  157.2291   -5.7116 H   0  0  0  0  0  0  0  0  0  0  0  0
   52.2879  155.1039   -1.6057 H   0  0  0  0  0  0  0  0  0  0  0  0
   53.7523  155.7160   -0.8746 H   0  0  0  0  0  0  0  0  0  0  0  0
   51.3222  154.6442   -4.7525 H   0  0  0  0  0  0  0  0  0  0  0  0
  1  7  2  0  0  0  0
  1  8  1  0  0  0  0
  2  3  2  0  0  0  0
  2  4  1  0  0  0  0
  2  7  1  0  0  0  0
  3  6  1  0  0  0  0
  3  8  1  0  0  0  0
  5  6  1  0  0  0  0
  5  9  1  0  0  0  0
  6 10  1  0  0  0  0
  1 11  1  0  0  0  0
  4 12  1  0  0  0  0
  4 13  1  0  0  0  0
  4 14  1  0  0  0  0
  5 15  1  0  0  0  0
  5 16  1  0  0  0  0
  6 17  1  0  0  0  0
  8 18  1  0  0  0  0
  9 19  1  0  0  0  0
  9 20  1  0  0  0  0
 10 21  1  0  0  0  0
M  END
> <FRED Chemgauss4 score>
-5.368708

$$$$
C84117419	P131645698
  -OEChem-05122015083D

 22 23  0     1  0  0  0  0  0999 V2000
   55.4040  159.8975   -4.9455 C   0  0  0  0  0  0  0  0  0  0  0  0
   54.5639  161.0262   -4.9027 C   0  0  0  0  0  0  0  0  0  0  0  0
   54.5486  158.8284   -4.8369 C   0  0  0  0  0  0  0  0  0  0  0  0
   54.8046  157.4365   -4.8179 C   0  0  0  0  0  0  0  0  0  0  0  0
   55.4158  155.1925   -5.2149 C   0  0  0  0  0  0  0  0  0  0  0  0
   55.2524  153.5118   -7.0966 C   0  0  0  0  0  0  0  0  0  0  0  0
   55.9275  153.8841   -5.7781 C   0  0  2  0  0  0  0  0  0  0  0  0
   53.2737  160.7042   -4.7771 N   0  0  0  0  0  0  0  0  0  0  0  0
   54.4809  156.6569   -3.8083 N   0  0  0  0  0  0  0  0  0  0  0  0
   54.8403  155.3408   -4.0408 N   0  0  0  0  0  0  0  0  0  0  0  0
   53.2968  159.3610   -4.7399 N   0  0  0  0  0  0  0  0  0  0  0  0
   55.7944  152.8123   -4.8182 N   0  0  0  0  0  0  0  0  0  0  0  0
   55.5674  156.6358   -6.1289 S   0  0  0  0  0  0  0  0  0  0  0  0
   56.4801  159.8707   -5.0413 H   0  0  0  0  0  0  0  0  0  0  0  0
   54.8380  162.0697   -4.9577 H   0  0  0  0  0  0  0  0  0  0  0  0
   54.1690  153.4099   -6.9702 H   0  0  0  0  0  0  0  0  0  0  0  0
   55.4347  154.2837   -7.8527 H   0  0  0  0  0  0  0  0  0  0  0  0
   55.6356  152.5682   -7.5012 H   0  0  0  0  0  0  0  0  0  0  0  0
   57.0043  153.9712   -5.9681 H   0  0  0  0  0  0  0  0  0  0  0  0
   52.4152  158.8713   -4.6473 H   0  0  0  0  0  0  0  0  0  0  0  0
   55.9205  153.0168   -3.8431 H   0  0  0  0  0  0  0  0  0  0  0  0
   55.7831  151.8642   -5.1494 H   0  0  0  0  0  0  0  0  0  0  0  0
  1  2  1  0  0  0  0
  1  3  2  0  0  0  0
  2  8  2  0  0  0  0
  3  4  1  0  0  0  0
  3 11  1  0  0  0  0
  4  9  2  0  0  0  0
  4 13  1  0  0  0  0
  5  7  1  0  0  0  0
  5 10  2  0  0  0  0
  5 13  1  0  0  0  0
  6  7  1  0  0  0  0
  7 12  1  0  0  0  0
  8 11  1  0  0  0  0
  9 10  1  0  0  0  0
  1 14  1  0  0  0  0
  2 15  1  0  0  0  0
  6 16  1  0  0  0  0
  6 17  1  0  0  0  0
  6 18  1  0  0  0  0
  7 19  1  0  0  0  0
 11 20  1  0  0  0  0
 12 21  1  0  0  0  0
 12 22  1  0  0  0  0
M  END
> <FRED Chemgauss4 score>
-5.367859

$$$$
C39059147	P59177984
  -OEChem-05122015083D

 21 21  0     1  0  0  0  0  0999 V2000
   55.9234  156.6227   -4.1361 C   0  0  0  0  0  0  0  0  0  0  0  0
   54.8422  156.9617   -3.1125 C   0  0  2  0  0  0  0  0  0  0  0  0
   53.6913  155.9858   -3.3989 C   0  0  1  0  0  0  0  0  0  0  0  0
   54.1211  155.2039   -4.6497 C   0  0  1  0  0  0  0  0  0  0  0  0
   53.5493  155.8425   -5.9212 C   0  0  0  0  0  0  0  0  0  0  0  0
   55.5853  155.2546   -4.5137 N   0  0  1  0  0  0  0  0  0  0  0  0
   54.4126  158.3057   -3.2779 O   0  0  0  0  0  0  0  0  0  0  0  0
   53.5521  155.0861   -2.2996 O   0  0  0  0  0  0  0  0  0  0  0  0
   52.1361  155.8265   -5.8367 O   0  0  0  0  0  0  0  0  0  0  0  0
   56.1889  154.9960   -5.7997 O   0  0  0  0  0  0  0  0  0  0  0  0
   55.9561  157.2992   -4.9770 H   0  0  0  0  0  0  0  0  0  0  0  0
   56.8891  156.6086   -3.6444 H   0  0  0  0  0  0  0  0  0  0  0  0
   55.2329  156.8564   -2.0884 H   0  0  0  0  0  0  0  0  0  0  0  0
   52.7404  156.5061   -3.5328 H   0  0  0  0  0  0  0  0  0  0  0  0
   53.7786  154.1945   -4.5872 H   0  0  0  0  0  0  0  0  0  0  0  0
   53.8646  155.2747   -6.7964 H   0  0  0  0  0  0  0  0  0  0  0  0
   53.8937  156.8730   -6.0071 H   0  0  0  0  0  0  0  0  0  0  0  0
   55.1933  158.8674   -3.1454 H   0  0  0  0  0  0  0  0  0  0  0  0
   52.8184  154.4872   -2.5159 H   0  0  0  0  0  0  0  0  0  0  0  0
   51.7966  156.2352   -6.6513 H   0  0  0  0  0  0  0  0  0  0  0  0
   57.1194  155.1391   -5.5627 H   0  0  0  0  0  0  0  0  0  0  0  0
  1  2  1  0  0  0  0
  1  6  1  0  0  0  0
  2  3  1  0  0  0  0
  2  7  1  0  0  0  0
  3  4  1  0  0  0  0
  3  8  1  0  0  0  0
  4  5  1  0  0  0  0
  4  6  1  0  0  0  0
  5  9  1  0  0  0  0
  6 10  1  0  0  0  0
  1 11  1  0  0  0  0
  1 12  1  0  0  0  0
  2 13  1  0  0  0  0
  3 14  1  0  0  0  0
  4 15  1  0  0  0  0
  5 16  1  0  0  0  0
  5 17  1  0  0  0  0
  7 18  1  0  0  0  0
  8 19  1  0  0  0  0
  9 20  1  0  0  0  0
 10 21  1  0  0  0  0
M  END
> <FRED Chemgauss4 score>
-5.361491

$$$$
C03672342	P06747335
  -OEChem-05122015083D

 29 29  0     0  0  0  0  0  0999 V2000
   56.5421  163.0459   -1.6431 C   0  0  0  0  0  0  0  0  0  0  0  0
   57.2192  161.8505   -1.6996 C   0  0  0  0  0  0  0  0  0  0  0  0
   57.2291  162.8756   -3.6504 C   0  0  0  0  0  0  0  0  0  0  0  0
   54.2784  156.3238   -3.0515 C   0  0  0  0  0  0  0  0  0  0  0  0
   54.8534  157.7027   -2.9433 C   0  0  0  0  0  0  0  0  0  0  0  0
   52.3905  155.0667   -4.0495 C   0  0  0  0  0  0  0  0  0  0  0  0
   57.7169  159.3125   -3.4108 C   0  0  0  0  0  0  0  0  0  0  0  0
   58.4280  160.6583   -3.5648 C   0  0  0  0  0  0  0  0  0  0  0  0
   56.3610  159.2881   -4.1074 C   0  0  0  0  0  0  0  0  0  0  0  0
   56.5517  163.6790   -2.8607 N   0  0  0  0  0  0  0  0  0  0  0  0
   57.6531  161.7550   -2.9918 N   0  0  0  0  0  0  0  0  0  0  0  0
   53.1161  156.2876   -3.7876 N   0  0  0  0  0  0  0  0  0  0  0  0
   55.7020  158.0091   -3.9825 N   0  0  0  0  0  0  0  0  0  0  0  0
   54.8824  155.4088   -2.5152 O   0  0  0  0  0  0  0  0  0  0  0  0
   54.5129  158.3911   -1.9947 O   0  0  0  0  0  0  0  0  0  0  0  0
   56.0482  163.4828   -0.7875 H   0  0  0  0  0  0  0  0  0  0  0  0
   57.4216  161.0887   -0.9598 H   0  0  0  0  0  0  0  0  0  0  0  0
   57.4420  163.0500   -4.6963 H   0  0  0  0  0  0  0  0  0  0  0  0
   52.7488  154.6078   -4.9747 H   0  0  0  0  0  0  0  0  0  0  0  0
   51.3223  155.2763   -4.1515 H   0  0  0  0  0  0  0  0  0  0  0  0
   52.5320  154.3592   -3.2281 H   0  0  0  0  0  0  0  0  0  0  0  0
   57.5929  159.0774   -2.3461 H   0  0  0  0  0  0  0  0  0  0  0  0
   58.3440  158.5191   -3.8366 H   0  0  0  0  0  0  0  0  0  0  0  0
   58.6066  160.8980   -4.6194 H   0  0  0  0  0  0  0  0  0  0  0  0
   59.4044  160.6457   -3.0659 H   0  0  0  0  0  0  0  0  0  0  0  0
   55.6914  160.0523   -3.7000 H   0  0  0  0  0  0  0  0  0  0  0  0
   56.4862  159.4803   -5.1778 H   0  0  0  0  0  0  0  0  0  0  0  0
   52.7523  157.1584   -4.1633 H   0  0  0  0  0  0  0  0  0  0  0  0
   55.8844  157.3113   -4.6979 H   0  0  0  0  0  0  0  0  0  0  0  0
  1  2  2  0  0  0  0
  1 10  1  0  0  0  0
  2 11  1  0  0  0  0
  3 10  2  0  0  0  0
  3 11  1  0  0  0  0
  4  5  1  0  0  0  0
  4 12  1  0  0  0  0
  4 14  2  0  0  0  0
  5 13  1  0  0  0  0
  5 15  2  0  0  0  0
  6 12  1  0  0  0  0
  7  8  1  0  0  0  0
  7  9  1  0  0  0  0
  8 11  1  0  0  0  0
  9 13  1  0  0  0  0
  1 16  1  0  0  0  0
  2 17  1  0  0  0  0
  3 18  1  0  0  0  0
  6 19  1  0  0  0  0
  6 20  1  0  0  0  0
  6 21  1  0  0  0  0
  7 22  1  0  0  0  0
  7 23  1  0  0  0  0
  8 24  1  0  0  0  0
  8 25  1  0  0  0  0
  9 26  1  0  0  0  0
  9 27  1  0  0  0  0
 12 28  1  0  0  0  0
 13 29  1  0  0  0  0
M  END
> <FRED Chemgauss4 score>
-5.358307

$$$$
C82263403	P128500246
  -OEChem-05122015083D

 31 31  0     1  0  0  0  0  0999 V2000
   55.3373  154.5053   -5.4499 C   0  0  0  0  0  0  0  0  0  0  0  0
   60.6609  156.6739   -7.6481 C   0  0  0  0  0  0  0  0  0  0  0  0
   59.6780  156.8900   -6.5249 C   0  0  0  0  0  0  0  0  0  0  0  0
   60.3440  155.2557   -8.0727 C   0  0  0  0  0  0  0  0  0  0  0  0
   58.4547  156.1573   -7.0483 C   0  0  2  0  0  0  0  0  0  0  0  0
   56.2959  154.9763   -6.5289 C   0  0  0  0  0  0  0  0  0  0  0  0
   57.5284  155.6668   -5.9525 C   0  0  0  0  0  0  0  0  0  0  0  0
   53.8379  155.7004   -2.7543 C   0  0  0  0  0  0  0  0  0  0  0  0
   53.3785  155.2739   -4.1384 C   0  0  0  0  0  0  0  0  0  0  0  0
   54.1698  157.0988   -2.6995 N   0  0  0  0  0  0  0  0  0  0  0  0
   54.4021  155.4805   -5.1354 N   0  0  0  0  0  0  0  0  0  0  0  0
   55.3976  153.3932   -4.9324 O   0  0  0  0  0  0  0  0  0  0  0  0
   58.9504  155.0400   -7.8049 O   0  0  0  0  0  0  0  0  0  0  0  0
   60.4457  157.3676   -8.4695 H   0  0  0  0  0  0  0  0  0  0  0  0
   61.7046  156.8080   -7.3522 H   0  0  0  0  0  0  0  0  0  0  0  0
   60.0571  156.4202   -5.6092 H   0  0  0  0  0  0  0  0  0  0  0  0
   59.4839  157.9453   -6.3143 H   0  0  0  0  0  0  0  0  0  0  0  0
   60.5476  155.0794   -9.1326 H   0  0  0  0  0  0  0  0  0  0  0  0
   60.9124  154.5293   -7.4821 H   0  0  0  0  0  0  0  0  0  0  0  0
   57.8991  156.7975   -7.7445 H   0  0  0  0  0  0  0  0  0  0  0  0
   56.5980  154.1052   -7.1225 H   0  0  0  0  0  0  0  0  0  0  0  0
   55.7558  155.6643   -7.1902 H   0  0  0  0  0  0  0  0  0  0  0  0
   58.0743  154.9743   -5.3005 H   0  0  0  0  0  0  0  0  0  0  0  0
   57.2244  156.5161   -5.3290 H   0  0  0  0  0  0  0  0  0  0  0  0
   54.7240  155.1413   -2.4376 H   0  0  0  0  0  0  0  0  0  0  0  0
   53.0399  155.5311   -2.0246 H   0  0  0  0  0  0  0  0  0  0  0  0
   53.1346  154.2071   -4.1446 H   0  0  0  0  0  0  0  0  0  0  0  0
   52.4930  155.8343   -4.4550 H   0  0  0  0  0  0  0  0  0  0  0  0
   54.6531  157.5196   -3.4770 H   0  0  0  0  0  0  0  0  0  0  0  0
   54.1024  157.5854   -1.8198 H   0  0  0  0  0  0  0  0  0  0  0  0
   54.4387  156.3706   -5.6234 H   0  0  0  0  0  0  0  0  0  0  0  0
  1  6  1  0  0  0  0
  1 11  1  0  0  0  0
  1 12  2  0  0  0  0
  2  3  1  0  0  0  0
  2  4  1  0  0  0  0
  3  5  1  0  0  0  0
  4 13  1  0  0  0  0
  5  7  1  0  0  0  0
  5 13  1  0  0  0  0
  6  7  1  0  0  0  0
  8  9  1  0  0  0  0
  8 10  1  0  0  0  0
  9 11  1  0  0  0  0
  2 14  1  0  0  0  0
  2 15  1  0  0  0  0
  3 16  1  0  0  0  0
  3 17  1  0  0  0  0
  4 18  1  0  0  0  0
  4 19  1  0  0  0  0
  5 20  1  0  0  0  0
  6 21  1  0  0  0  0
  6 22  1  0  0  0  0
  7 23  1  0  0  0  0
  7 24  1  0  0  0  0
  8 25  1  0  0  0  0
  8 26  1  0  0  0  0
  9 27  1  0  0  0  0
  9 28  1  0  0  0  0
 10 29  1  0  0  0  0
 10 30  1  0  0  0  0
 11 31  1  0  0  0  0
M  END
> <FRED Chemgauss4 score>
-5.358045

$$$$
C85004499	P133054972
  -OEChem-05122015083D

 29 29  0     1  0  0  0  0  0999 V2000
   57.8610  156.7573   -6.6982 C   0  0  0  0  0  0  0  0  0  0  0  0
   56.6120  156.7786   -4.9237 C   0  0  0  0  0  0  0  0  0  0  0  0
   57.4689  153.6986   -6.5516 C   0  0  0  0  0  0  0  0  0  0  0  0
   53.2300  155.6463   -3.4094 C   0  0  0  0  0  0  0  0  0  0  0  0
   55.5999  156.3405   -3.8891 C   0  0  0  0  0  0  0  0  0  0  0  0
   56.3867  154.7544   -6.4042 C   0  0  0  0  0  0  0  0  0  0  0  0
   53.8141  156.3554   -5.7755 C   0  0  0  0  0  0  0  0  0  0  0  0
   54.1149  156.5572   -4.2758 C   0  0  1  0  0  0  0  0  0  0  0  0
   58.1101  157.8748   -6.0536 N   0  0  0  0  0  0  0  0  0  0  0  0
   57.3155  157.8884   -4.9247 N   0  0  0  0  0  0  0  0  0  0  0  0
   56.9237  156.0366   -6.0224 N   0  0  0  0  0  0  0  0  0  0  0  0
   52.4545  156.7130   -6.1609 N   0  0  0  0  0  0  0  0  0  0  0  0
   53.7411  157.9066   -3.9638 O   0  0  0  0  0  0  0  0  0  0  0  0
   58.3143  156.4324   -7.6238 H   0  0  0  0  0  0  0  0  0  0  0  0
   58.2046  153.9892   -7.3090 H   0  0  0  0  0  0  0  0  0  0  0  0
   57.0283  152.7432   -6.8528 H   0  0  0  0  0  0  0  0  0  0  0  0
   58.0036  153.5460   -5.6083 H   0  0  0  0  0  0  0  0  0  0  0  0
   52.1716  155.7785   -3.6615 H   0  0  0  0  0  0  0  0  0  0  0  0
   53.4865  154.5887   -3.5247 H   0  0  0  0  0  0  0  0  0  0  0  0
   53.3268  155.9046   -2.3483 H   0  0  0  0  0  0  0  0  0  0  0  0
   55.7725  155.2834   -3.6471 H   0  0  0  0  0  0  0  0  0  0  0  0
   55.8219  156.8921   -2.9647 H   0  0  0  0  0  0  0  0  0  0  0  0
   55.6557  154.4549   -5.6447 H   0  0  0  0  0  0  0  0  0  0  0  0
   55.8422  154.8837   -7.3465 H   0  0  0  0  0  0  0  0  0  0  0  0
   54.0057  155.3138   -6.0598 H   0  0  0  0  0  0  0  0  0  0  0  0
   54.5211  156.9460   -6.3723 H   0  0  0  0  0  0  0  0  0  0  0  0
   51.7093  156.4679   -5.5437 H   0  0  0  0  0  0  0  0  0  0  0  0
   52.2915  157.0005   -7.1029 H   0  0  0  0  0  0  0  0  0  0  0  0
   52.8031  157.9820   -4.1868 H   0  0  0  0  0  0  0  0  0  0  0  0
  1  9  2  0  0  0  0
  1 11  1  0  0  0  0
  2  5  1  0  0  0  0
  2 10  2  0  0  0  0
  2 11  1  0  0  0  0
  3  6  1  0  0  0  0
  4  8  1  0  0  0  0
  5  8  1  0  0  0  0
  6 11  1  0  0  0  0
  7  8  1  0  0  0  0
  7 12  1  0  0  0  0
  8 13  1  0  0  0  0
  9 10  1  0  0  0  0
  1 14  1  0  0  0  0
  3 15  1  0  0  0  0
  3 16  1  0  0  0  0
  3 17  1  0  0  0  0
  4 18  1  0  0  0  0
  4 19  1  0  0  0  0
  4 20  1  0  0  0  0
  5 21  1  0  0  0  0
  5 22  1  0  0  0  0
  6 23  1  0  0  0  0
  6 24  1  0  0  0  0
  7 25  1  0  0  0  0
  7 26  1  0  0  0  0
 12 27  1  0  0  0  0
 12 28  1  0  0  0  0
 13 29  1  0  0  0  0
M  END
> <FRED Chemgauss4 score>
-5.356654

$$$$
C86400076	P135284226
  -OEChem-05122015083D

 27 28  0     1  0  0  0  0  0999 V2000
   55.5355  159.2197   -2.3249 C   0  0  0  0  0  0  0  0  0  0  0  0
   55.6817  155.5242   -4.1626 C   0  0  0  0  0  0  0  0  0  0  0  0
   54.7976  154.8253   -5.1994 C   0  0  0  0  0  0  0  0  0  0  0  0
   53.4702  155.5549   -3.2817 C   0  0  0  0  0  0  0  0  0  0  0  0
   54.7252  156.4184   -3.3804 C   0  0  1  0  0  0  0  0  0  0  0  0
   53.3635  154.9238   -4.6678 C   0  0  1  0  0  0  0  0  0  0  0  0
   56.2113  157.8849   -2.1986 C   0  0  0  0  0  0  0  0  0  0  0  0
   55.7043  160.0327   -3.3851 N   0  5  0  0  0  0  0  0  0  0  0  0
   54.7042  159.7154   -1.3888 N   0  0  0  0  0  0  0  0  0  0  0  0
   54.9287  161.1071   -3.0943 N   0  0  0  0  0  0  0  0  0  0  0  0
   54.3279  160.9166   -1.8950 N   0  0  0  0  0  0  0  0  0  0  0  0
   55.2498  156.7958   -2.0795 N   0  0  0  0  0  0  0  0  0  0  0  0
   52.5748  155.8199   -5.5577 N   0  3  0  0  0  0  0  0  0  0  0  0
   56.1388  154.7684   -3.5108 H   0  0  0  0  0  0  0  0  0  0  0  0
   56.4936  156.0903   -4.6307 H   0  0  0  0  0  0  0  0  0  0  0  0
   54.9122  155.2932   -6.1841 H   0  0  0  0  0  0  0  0  0  0  0  0
   55.1037  153.7781   -5.3013 H   0  0  0  0  0  0  0  0  0  0  0  0
   53.6065  154.7618   -2.5349 H   0  0  0  0  0  0  0  0  0  0  0  0
   52.5858  156.1340   -2.9946 H   0  0  0  0  0  0  0  0  0  0  0  0
   54.5151  157.3250   -3.9527 H   0  0  0  0  0  0  0  0  0  0  0  0
   52.8415  153.9626   -4.6587 H   0  0  0  0  0  0  0  0  0  0  0  0
   56.8397  157.6859   -3.0735 H   0  0  0  0  0  0  0  0  0  0  0  0
   56.8613  157.8553   -1.3178 H   0  0  0  0  0  0  0  0  0  0  0  0
   54.4810  157.0939   -1.4781 H   0  0  0  0  0  0  0  0  0  0  0  0
   52.8011  156.8013   -5.3748 H   0  0  0  0  0  0  0  0  0  0  0  0
   51.5711  155.6884   -5.4044 H   0  0  0  0  0  0  0  0  0  0  0  0
   52.7776  155.6220   -6.5414 H   0  0  0  0  0  0  0  0  0  0  0  0
  1  7  1  0  0  0  0
  1  8  1  0  0  0  0
  1  9  2  0  0  0  0
  2  3  1  0  0  0  0
  2  5  1  0  0  0  0
  3  6  1  0  0  0  0
  4  5  1  0  0  0  0
  4  6  1  0  0  0  0
  5 12  1  0  0  0  0
  6 13  1  0  0  0  0
  7 12  1  0  0  0  0
  8 10  1  0  0  0  0
  9 11  1  0  0  0  0
 10 11  2  0  0  0  0
  2 14  1  0  0  0  0
  2 15  1  0  0  0  0
  3 16  1  0  0  0  0
  3 17  1  0  0  0  0
  4 18  1  0  0  0  0
  4 19  1  0  0  0  0
  5 20  1  0  0  0  0
  6 21  1  0  0  0  0
  7 22  1  0  0  0  0
  7 23  1  0  0  0  0
 12 24  1  0  0  0  0
 13 25  1  0  0  0  0
 13 26  1  0  0  0  0
 13 27  1  0  0  0  0
M  CHG  2   8  -1  13   1
M  END
> <FRED Chemgauss4 score>
-5.351116

$$$$
C42436697	P64186413
  -OEChem-05122015083D

 25 25  0     0  0  0  0  0  0999 V2000
   55.4779  156.2401   -3.9325 C   0  0  0  0  0  0  0  0  0  0  0  0
   57.8221  153.8104   -6.6563 C   0  0  0  0  0  0  0  0  0  0  0  0
   56.1198  155.8693   -5.2039 C   0  0  0  0  0  0  0  0  0  0  0  0
   55.9718  158.7357   -4.0382 C   0  0  0  0  0  0  0  0  0  0  0  0
   54.9074  159.8000   -4.2818 C   0  0  0  0  0  0  0  0  0  0  0  0
   55.7814  154.4466   -5.6799 C   0  0  0  0  0  0  0  0  0  0  0  0
   54.8665  155.4515   -3.0788 N   0  0  0  0  0  0  0  0  0  0  0  0
   54.4407  156.2697   -2.0569 N   0  0  0  0  0  0  0  0  0  0  0  0
   54.7855  157.5318   -2.2811 N   0  0  0  0  0  0  0  0  0  0  0  0
   55.4336  157.5107   -3.4541 N   0  0  0  0  0  0  0  0  0  0  0  0
   53.8648  159.3458   -5.1618 N   0  0  0  0  0  0  0  0  0  0  0  0
   56.4703  154.1781   -6.8944 O   0  0  0  0  0  0  0  0  0  0  0  0
   58.3196  153.6120   -7.6088 H   0  0  0  0  0  0  0  0  0  0  0  0
   57.8523  152.9191   -6.0246 H   0  0  0  0  0  0  0  0  0  0  0  0
   58.3298  154.6330   -6.1471 H   0  0  0  0  0  0  0  0  0  0  0  0
   55.8446  156.5783   -6.0098 H   0  0  0  0  0  0  0  0  0  0  0  0
   57.2218  155.9408   -5.1184 H   0  0  0  0  0  0  0  0  0  0  0  0
   56.4491  158.4559   -4.9850 H   0  0  0  0  0  0  0  0  0  0  0  0
   56.7616  159.1086   -3.3752 H   0  0  0  0  0  0  0  0  0  0  0  0
   54.4278  160.0726   -3.3367 H   0  0  0  0  0  0  0  0  0  0  0  0
   55.3379  160.7051   -4.7223 H   0  0  0  0  0  0  0  0  0  0  0  0
   56.1010  153.7037   -4.9421 H   0  0  0  0  0  0  0  0  0  0  0  0
   54.7059  154.3324   -5.8514 H   0  0  0  0  0  0  0  0  0  0  0  0
   53.3290  160.0238   -5.6801 H   0  0  0  0  0  0  0  0  0  0  0  0
   53.5489  158.3910   -5.0976 H   0  0  0  0  0  0  0  0  0  0  0  0
  1  3  1  0  0  0  0
  1  7  2  0  0  0  0
  1 10  1  0  0  0  0
  2 12  1  0  0  0  0
  3  6  1  0  0  0  0
  4  5  1  0  0  0  0
  4 10  1  0  0  0  0
  5 11  1  0  0  0  0
  6 12  1  0  0  0  0
  7  8  1  0  0  0  0
  8  9  2  0  0  0  0
  9 10  1  0  0  0  0
  2 13  1  0  0  0  0
  2 14  1  0  0  0  0
  2 15  1  0  0  0  0
  3 16  1  0  0  0  0
  3 17  1  0  0  0  0
  4 18  1  0  0  0  0
  4 19  1  0  0  0  0
  5 20  1  0  0  0  0
  5 21  1  0  0  0  0
  6 22  1  0  0  0  0
  6 23  1  0  0  0  0
 11 24  1  0  0  0  0
 11 25  1  0  0  0  0
M  END
> <FRED Chemgauss4 score>
-5.349371

$$$$
C83758292	P131046739
  -OEChem-05122015083D

 27 27  0     1  0  0  0  0  0999 V2000
   58.0586  154.1407   -6.9100 C   0  0  0  0  0  0  0  0  0  0  0  0
   59.3886  154.0173   -7.2569 C   0  0  0  0  0  0  0  0  0  0  0  0
   59.7582  156.2177   -6.8223 C   0  0  0  0  0  0  0  0  0  0  0  0
   57.6592  155.4011   -6.5149 C   0  0  0  0  0  0  0  0  0  0  0  0
   54.7834  155.7939   -4.1925 C   0  0  0  0  0  0  0  0  0  0  0  0
   55.5005  156.6721   -6.9968 C   0  0  0  0  0  0  0  0  0  0  0  0
   54.7114  156.2160   -2.7364 C   0  0  0  0  0  0  0  0  0  0  0  0
   56.2132  155.6360   -6.1137 C   0  0  2  0  0  0  0  0  0  0  0  0
   60.2695  155.0387   -7.2246 N   0  0  0  0  0  0  0  0  0  0  0  0
   58.4854  156.4662   -6.4589 N   0  0  0  0  0  0  0  0  0  0  0  0
   55.8514  158.0217   -6.6389 N   0  0  0  0  0  0  0  0  0  0  0  0
   56.1222  156.0323   -4.7033 N   0  0  0  0  0  0  0  0  0  0  0  0
   53.3902  156.0142   -2.2510 O   0  0  0  0  0  0  0  0  0  0  0  0
   57.3808  153.2976   -6.9482 H   0  0  0  0  0  0  0  0  0  0  0  0
   59.7952  153.0651   -7.5805 H   0  0  0  0  0  0  0  0  0  0  0  0
   60.4441  157.0551   -6.7870 H   0  0  0  0  0  0  0  0  0  0  0  0
   54.5564  154.7294   -4.3088 H   0  0  0  0  0  0  0  0  0  0  0  0
   54.0799  156.3780   -4.7936 H   0  0  0  0  0  0  0  0  0  0  0  0
   55.7882  156.5462   -8.0469 H   0  0  0  0  0  0  0  0  0  0  0  0
   54.4097  156.5919   -6.9404 H   0  0  0  0  0  0  0  0  0  0  0  0
   54.9467  157.2807   -2.6428 H   0  0  0  0  0  0  0  0  0  0  0  0
   55.4063  155.6410   -2.1157 H   0  0  0  0  0  0  0  0  0  0  0  0
   55.6706  154.6864   -6.2099 H   0  0  0  0  0  0  0  0  0  0  0  0
   55.2144  158.7689   -6.8618 H   0  0  0  0  0  0  0  0  0  0  0  0
   56.7981  158.2246   -6.3625 H   0  0  0  0  0  0  0  0  0  0  0  0
   56.3468  157.0204   -4.6290 H   0  0  0  0  0  0  0  0  0  0  0  0
   53.3879  156.2951   -1.3218 H   0  0  0  0  0  0  0  0  0  0  0  0
  1  2  1  0  0  0  0
  1  4  2  0  0  0  0
  2  9  2  0  0  0  0
  3  9  1  0  0  0  0
  3 10  2  0  0  0  0
  4  8  1  0  0  0  0
  4 10  1  0  0  0  0
  5  7  1  0  0  0  0
  5 12  1  0  0  0  0
  6  8  1  0  0  0  0
  6 11  1  0  0  0  0
  7 13  1  0  0  0  0
  8 12  1  0  0  0  0
  1 14  1  0  0  0  0
  2 15  1  0  0  0  0
  3 16  1  0  0  0  0
  5 17  1  0  0  0  0
  5 18  1  0  0  0  0
  6 19  1  0  0  0  0
  6 20  1  0  0  0  0
  7 21  1  0  0  0  0
  7 22  1  0  0  0  0
  8 23  1  0  0  0  0
 11 24  1  0  0  0  0
 11 25  1  0  0  0  0
 12 26  1  0  0  0  0
 13 27  1  0  0  0  0
M  END
> <FRED Chemgauss4 score>
-5.347805

$$$$
C72408939	P112633960
  -OEChem-05122015083D

 47 50  0     1  0  0  0  0  0999 V2000
   58.1714  160.2133   -0.8228 C   0  0  0  0  0  0  0  0  0  0  0  0
   56.8539  159.9533   -1.2990 C   0  0  0  0  0  0  0  0  0  0  0  0
   53.0363  161.1646   -5.7991 C   0  0  0  0  0  0  0  0  0  0  0  0
   54.6683  162.6881   -6.6934 C   0  0  0  0  0  0  0  0  0  0  0  0
   52.0684  161.8885   -6.4766 C   0  0  0  0  0  0  0  0  0  0  0  0
   53.6274  163.3437   -7.3310 C   0  0  0  0  0  0  0  0  0  0  0  0
   57.7851  156.6893   -5.5014 C   0  0  0  0  0  0  0  0  0  0  0  0
   54.3586  161.5786   -5.9147 C   0  0  0  0  0  0  0  0  0  0  0  0
   55.7771  156.0702   -5.7571 C   0  0  0  0  0  0  0  0  0  0  0  0
   55.7084  157.3819   -5.3505 C   0  0  0  0  0  0  0  0  0  0  0  0
   58.6546  161.4227   -1.2717 C   0  0  0  0  0  0  0  0  0  0  0  0
   56.3802  160.9742   -2.0937 C   0  0  0  0  0  0  0  0  0  0  0  0
   54.4806  158.9229   -3.9087 C   0  0  0  0  0  0  0  0  0  0  0  0
   54.5617  155.2741   -6.0429 C   0  0  0  0  0  0  0  0  0  0  0  0
   53.3431  156.2204   -6.1938 C   0  0  0  0  0  0  0  0  0  0  0  0
   54.4599  158.1619   -5.1923 C   0  0  2  0  0  0  0  0  0  0  0  0
   59.9679  162.0469   -1.0010 C   0  0  0  0  0  0  0  0  0  0  0  0
   55.4476  160.8310   -5.2011 C   0  0  0  0  0  0  0  0  0  0  0  0
   55.0498  161.0828   -2.7810 C   0  0  0  0  0  0  0  0  0  0  0  0
   52.3308  162.9713   -7.2423 N   0  0  0  0  0  0  0  0  0  0  0  0
   57.0686  155.6358   -5.8416 N   0  0  0  0  0  0  0  0  0  0  0  0
   57.0039  157.7785   -5.2027 N   0  0  0  0  0  0  0  0  0  0  0  0
   53.2857  157.2592   -5.1376 N   0  0  0  0  0  0  0  0  0  0  0  0
   54.9734  160.2273   -3.9624 N   0  0  0  0  0  0  0  0  0  0  0  0
   54.0710  158.3789   -2.8798 O   0  0  0  0  0  0  0  0  0  0  0  0
   57.5219  162.2391   -2.2630 S   0  0  0  0  0  0  0  0  0  0  0  0
   58.7323  159.5445   -0.1822 H   0  0  0  0  0  0  0  0  0  0  0  0
   56.2853  159.0618   -1.0666 H   0  0  0  0  0  0  0  0  0  0  0  0
   52.7618  160.3038   -5.1987 H   0  0  0  0  0  0  0  0  0  0  0  0
   55.6899  163.0352   -6.8033 H   0  0  0  0  0  0  0  0  0  0  0  0
   51.0220  161.6073   -6.4179 H   0  0  0  0  0  0  0  0  0  0  0  0
   53.8164  164.2145   -7.9500 H   0  0  0  0  0  0  0  0  0  0  0  0
   58.8639  156.7334   -5.4525 H   0  0  0  0  0  0  0  0  0  0  0  0
   54.7115  154.7158   -6.9739 H   0  0  0  0  0  0  0  0  0  0  0  0
   54.3747  154.5524   -5.2417 H   0  0  0  0  0  0  0  0  0  0  0  0
   53.3907  156.7115   -7.1691 H   0  0  0  0  0  0  0  0  0  0  0  0
   52.4165  155.6388   -6.1818 H   0  0  0  0  0  0  0  0  0  0  0  0
   54.3261  158.8727   -6.0078 H   0  0  0  0  0  0  0  0  0  0  0  0
   60.7097  161.7489   -1.7584 H   0  0  0  0  0  0  0  0  0  0  0  0
   59.9076  163.1475   -1.0022 H   0  0  0  0  0  0  0  0  0  0  0  0
   60.3620  161.7619   -0.0118 H   0  0  0  0  0  0  0  0  0  0  0  0
   55.8463  160.0314   -5.8350 H   0  0  0  0  0  0  0  0  0  0  0  0
   56.2820  161.4950   -4.9519 H   0  0  0  0  0  0  0  0  0  0  0  0
   54.2399  160.7938   -2.1023 H   0  0  0  0  0  0  0  0  0  0  0  0
   54.8551  162.1122   -3.0999 H   0  0  0  0  0  0  0  0  0  0  0  0
   57.3312  158.6942   -4.9234 H   0  0  0  0  0  0  0  0  0  0  0  0
   52.4511  157.8143   -5.2932 H   0  0  0  0  0  0  0  0  0  0  0  0
  1  2  1  0  0  0  0
  1 11  2  0  0  0  0
  2 12  2  0  0  0  0
  3  5  2  0  0  0  0
  3  8  1  0  0  0  0
  4  6  1  0  0  0  0
  4  8  2  0  0  0  0
  5 20  1  0  0  0  0
  6 20  2  0  0  0  0
  7 21  2  0  0  0  0
  7 22  1  0  0  0  0
  8 18  1  0  0  0  0
  9 10  2  0  0  0  0
  9 14  1  0  0  0  0
  9 21  1  0  0  0  0
 10 16  1  0  0  0  0
 10 22  1  0  0  0  0
 11 17  1  0  0  0  0
 11 26  1  0  0  0  0
 12 19  1  0  0  0  0
 12 26  1  0  0  0  0
 13 16  1  0  0  0  0
 13 24  1  0  0  0  0
 13 25  2  0  0  0  0
 14 15  1  0  0  0  0
 15 23  1  0  0  0  0
 16 23  1  0  0  0  0
 18 24  1  0  0  0  0
 19 24  1  0  0  0  0
  1 27  1  0  0  0  0
  2 28  1  0  0  0  0
  3 29  1  0  0  0  0
  4 30  1  0  0  0  0
  5 31  1  0  0  0  0
  6 32  1  0  0  0  0
  7 33  1  0  0  0  0
 14 34  1  0  0  0  0
 14 35  1  0  0  0  0
 15 36  1  0  0  0  0
 15 37  1  0  0  0  0
 16 38  1  0  0  0  0
 17 39  1  0  0  0  0
 17 40  1  0  0  0  0
 17 41  1  0  0  0  0
 18 42  1  0  0  0  0
 18 43  1  0  0  0  0
 19 44  1  0  0  0  0
 19 45  1  0  0  0  0
 22 46  1  0  0  0  0
 23 47  1  0  0  0  0
M  END
> <FRED Chemgauss4 score>
-5.347397

$$$$
C70005397	P107943213
  -OEChem-05122015083D

 23 24  0     1  0  0  0  0  0999 V2000
   55.5026  155.3918   -4.2746 C   0  0  0  0  0  0  0  0  0  0  0  0
   55.1209  157.0194   -3.0014 C   0  0  0  0  0  0  0  0  0  0  0  0
   55.9869  155.5740   -6.7713 C   0  0  0  0  0  0  0  0  0  0  0  0
   56.4179  154.6839   -7.9260 C   0  0  0  0  0  0  0  0  0  0  0  0
   55.2185  153.4360   -5.8667 C   0  0  0  0  0  0  0  0  0  0  0  0
   56.0146  154.6947   -5.5161 C   0  0  2  0  0  0  0  0  0  0  0  0
   55.1266  158.4249   -2.5766 C   0  0  0  0  0  0  0  0  0  0  0  0
   54.9021  154.8906   -3.2206 N   0  0  0  0  0  0  0  0  0  0  0  0
   54.6509  155.9614   -2.3830 N   0  0  0  0  0  0  0  0  0  0  0  0
   53.8298  159.0624   -2.6950 N   0  0  0  0  0  0  0  0  0  0  0  0
   55.6785  156.7400   -4.2112 O   0  0  0  0  0  0  0  0  0  0  0  0
   55.6438  153.0766   -7.5964 S   0  0  0  0  0  0  0  0  0  0  0  0
   56.6529  156.4391   -6.6755 H   0  0  0  0  0  0  0  0  0  0  0  0
   54.9775  155.9688   -6.9518 H   0  0  0  0  0  0  0  0  0  0  0  0
   56.0984  155.0842   -8.8919 H   0  0  0  0  0  0  0  0  0  0  0  0
   57.5048  154.5559   -7.9392 H   0  0  0  0  0  0  0  0  0  0  0  0
   55.4810  152.5937   -5.2195 H   0  0  0  0  0  0  0  0  0  0  0  0
   54.1367  153.5976   -5.8000 H   0  0  0  0  0  0  0  0  0  0  0  0
   57.0741  154.4022   -5.3075 H   0  0  0  0  0  0  0  0  0  0  0  0
   55.4371  158.5422   -1.5199 H   0  0  0  0  0  0  0  0  0  0  0  0
   55.8314  159.0448   -3.1642 H   0  0  0  0  0  0  0  0  0  0  0  0
   53.7938  160.0541   -2.8330 H   0  0  0  0  0  0  0  0  0  0  0  0
   53.0141  158.5415   -2.4360 H   0  0  0  0  0  0  0  0  0  0  0  0
  1  6  1  0  0  0  0
  1  8  2  0  0  0  0
  1 11  1  0  0  0  0
  2  7  1  0  0  0  0
  2  9  2  0  0  0  0
  2 11  1  0  0  0  0
  3  4  1  0  0  0  0
  3  6  1  0  0  0  0
  4 12  1  0  0  0  0
  5  6  1  0  0  0  0
  5 12  1  0  0  0  0
  7 10  1  0  0  0  0
  8  9  1  0  0  0  0
  3 13  1  0  0  0  0
  3 14  1  0  0  0  0
  4 15  1  0  0  0  0
  4 16  1  0  0  0  0
  5 17  1  0  0  0  0
  5 18  1  0  0  0  0
  6 19  1  0  0  0  0
  7 20  1  0  0  0  0
  7 21  1  0  0  0  0
 10 22  1  0  0  0  0
 10 23  1  0  0  0  0
M  END
> <FRED Chemgauss4 score>
-5.347228

$$$$
C70590896	P108886031
  -OEChem-05122015083D

 28 28  0     1  0  0  0  0  0999 V2000
   54.4778  156.2932   -3.1084 C   0  0  0  0  0  0  0  0  0  0  0  0
   54.5965  157.7759   -2.8352 C   0  0  0  0  0  0  0  0  0  0  0  0
   55.6146  157.2493   -4.9502 C   0  0  0  0  0  0  0  0  0  0  0  0
   54.9072  158.3671   -4.2070 C   0  0  1  0  0  0  0  0  0  0  0  0
   55.4575  151.3798   -7.6743 C   0  0  0  0  0  0  0  0  0  0  0  0
   55.2685  154.7492   -4.9389 C   0  0  0  0  0  0  0  0  0  0  0  0
   54.3157  153.2059   -6.7338 C   0  0  0  0  0  0  0  0  0  0  0  0
   54.5645  154.6447   -6.2919 C   0  0  1  0  0  0  0  0  0  0  0  0
   55.0724  156.0536   -4.3439 N   0  0  0  0  0  0  0  0  0  0  0  0
   53.9840  155.4834   -2.3376 O   0  0  0  0  0  0  0  0  0  0  0  0
   53.6926  158.6786   -4.8843 O   0  0  0  0  0  0  0  0  0  0  0  0
   53.3079  155.3207   -6.2340 O   0  0  0  0  0  0  0  0  0  0  0  0
   55.5690  152.5419   -6.8658 O   0  0  0  0  0  0  0  0  0  0  0  0
   53.6635  158.1554   -2.4103 H   0  0  0  0  0  0  0  0  0  0  0  0
   55.4284  157.9244   -2.1393 H   0  0  0  0  0  0  0  0  0  0  0  0
   55.4088  157.2461   -6.0246 H   0  0  0  0  0  0  0  0  0  0  0  0
   56.6935  157.2556   -4.7651 H   0  0  0  0  0  0  0  0  0  0  0  0
   55.5038  159.2820   -4.1501 H   0  0  0  0  0  0  0  0  0  0  0  0
   56.4340  150.8959   -7.7547 H   0  0  0  0  0  0  0  0  0  0  0  0
   55.0944  151.6587   -8.6667 H   0  0  0  0  0  0  0  0  0  0  0  0
   54.7488  150.6901   -7.2097 H   0  0  0  0  0  0  0  0  0  0  0  0
   54.8701  153.9960   -4.2509 H   0  0  0  0  0  0  0  0  0  0  0  0
   56.3415  154.5643   -5.0544 H   0  0  0  0  0  0  0  0  0  0  0  0
   53.8113  153.1741   -7.7044 H   0  0  0  0  0  0  0  0  0  0  0  0
   53.7263  152.6546   -5.9941 H   0  0  0  0  0  0  0  0  0  0  0  0
   55.1632  155.1601   -7.0523 H   0  0  0  0  0  0  0  0  0  0  0  0
   53.2245  159.3225   -4.3305 H   0  0  0  0  0  0  0  0  0  0  0  0
   53.5042  156.2445   -6.0171 H   0  0  0  0  0  0  0  0  0  0  0  0
  1  2  1  0  0  0  0
  1  9  1  0  0  0  0
  1 10  2  0  0  0  0
  2  4  1  0  0  0  0
  3  4  1  0  0  0  0
  3  9  1  0  0  0  0
  4 11  1  0  0  0  0
  5 13  1  0  0  0  0
  6  8  1  0  0  0  0
  6  9  1  0  0  0  0
  7  8  1  0  0  0  0
  7 13  1  0  0  0  0
  8 12  1  0  0  0  0
  2 14  1  0  0  0  0
  2 15  1  0  0  0  0
  3 16  1  0  0  0  0
  3 17  1  0  0  0  0
  4 18  1  0  0  0  0
  5 19  1  0  0  0  0
  5 20  1  0  0  0  0
  5 21  1  0  0  0  0
  6 22  1  0  0  0  0
  6 23  1  0  0  0  0
  7 24  1  0  0  0  0
  7 25  1  0  0  0  0
  8 26  1  0  0  0  0
 11 27  1  0  0  0  0
 12 28  1  0  0  0  0
M  END
> <FRED Chemgauss4 score>
-5.346939

$$$$
C87588301	P137003099
  -OEChem-05122015083D

 27 28  0     1  0  0  0  0  0999 V2000
   53.3066  155.5354   -4.2721 C   0  0  0  0  0  0  0  0  0  0  0  0
   54.5876  155.1919   -6.0321 C   0  0  0  0  0  0  0  0  0  0  0  0
   54.6339  155.7374   -3.9752 C   0  0  0  0  0  0  0  0  0  0  0  0
   56.2229  158.3306   -3.5491 C   0  0  0  0  0  0  0  0  0  0  0  0
   57.5704  159.7290   -4.5175 C   0  0  0  0  0  0  0  0  0  0  0  0
   55.2459  156.1430   -2.6538 C   0  0  0  0  0  0  0  0  0  0  0  0
   55.3636  157.6740   -2.4821 C   0  0  2  0  0  0  0  0  0  0  0  0
   55.4260  155.5222   -5.0751 N   0  0  0  0  0  0  0  0  0  0  0  0
   56.3903  157.9242   -4.7874 N   0  0  0  0  0  0  0  0  0  0  0  0
   57.2476  158.8139   -5.4035 N   0  0  0  0  0  0  0  0  0  0  0  0
   53.2927  155.1870   -5.5933 N   0  0  0  0  0  0  0  0  0  0  0  0
   56.9476  159.4637   -3.3358 N   0  0  0  0  0  0  0  0  0  0  0  0
   58.3804  160.8044   -4.6463 N   0  0  0  0  0  0  0  0  0  0  0  0
   54.0245  158.2773   -2.4464 N   0  0  0  0  0  0  0  0  0  0  0  0
   57.0296  160.2023   -2.1327 N   0  0  0  0  0  0  0  0  0  0  0  0
   52.4005  155.6050   -3.6875 H   0  0  0  0  0  0  0  0  0  0  0  0
   54.8494  154.9473   -7.0518 H   0  0  0  0  0  0  0  0  0  0  0  0
   56.2428  155.6840   -2.5950 H   0  0  0  0  0  0  0  0  0  0  0  0
   54.6725  155.6980   -1.8299 H   0  0  0  0  0  0  0  0  0  0  0  0
   55.8148  157.8778   -1.5026 H   0  0  0  0  0  0  0  0  0  0  0  0
   52.4749  154.9652   -6.1452 H   0  0  0  0  0  0  0  0  0  0  0  0
   58.8978  160.9970   -5.5152 H   0  0  0  0  0  0  0  0  0  0  0  0
   58.5910  161.4267   -3.8538 H   0  0  0  0  0  0  0  0  0  0  0  0
   53.9510  159.2469   -2.6463 H   0  0  0  0  0  0  0  0  0  0  0  0
   53.2929  157.7493   -2.0316 H   0  0  0  0  0  0  0  0  0  0  0  0
   56.1724  160.1582   -1.5722 H   0  0  0  0  0  0  0  0  0  0  0  0
   57.1860  161.2034   -2.2903 H   0  0  0  0  0  0  0  0  0  0  0  0
  1  3  2  0  0  0  0
  1 11  1  0  0  0  0
  2  8  2  0  0  0  0
  2 11  1  0  0  0  0
  3  6  1  0  0  0  0
  3  8  1  0  0  0  0
  4  7  1  0  0  0  0
  4  9  2  0  0  0  0
  4 12  1  0  0  0  0
  5 10  2  0  0  0  0
  5 12  1  0  0  0  0
  5 13  1  0  0  0  0
  6  7  1  0  0  0  0
  7 14  1  0  0  0  0
  9 10  1  0  0  0  0
 12 15  1  0  0  0  0
  1 16  1  0  0  0  0
  2 17  1  0  0  0  0
  6 18  1  0  0  0  0
  6 19  1  0  0  0  0
  7 20  1  0  0  0  0
 11 21  1  0  0  0  0
 13 22  1  0  0  0  0
 13 23  1  0  0  0  0
 14 24  1  0  0  0  0
 14 25  1  0  0  0  0
 15 26  1  0  0  0  0
 15 27  1  0  0  0  0
M  END
> <FRED Chemgauss4 score>
-5.343522

$$$$
C22012448	P32767994
  -OEChem-05122015083D

 33 34  0     1  0  0  0  0  0999 V2000
   56.6590  156.5106   -5.7591 C   0  0  0  0  0  0  0  0  0  0  0  0
   58.0448  156.6637   -5.7184 C   0  0  0  0  0  0  0  0  0  0  0  0
   58.3183  154.4054   -6.5321 C   0  0  0  0  0  0  0  0  0  0  0  0
   55.2616  156.3775   -2.1486 C   0  0  0  0  0  0  0  0  0  0  0  0
   53.4049  156.2869   -3.0981 C   0  0  0  0  0  0  0  0  0  0  0  0
   56.1028  155.3047   -6.1863 C   0  0  0  0  0  0  0  0  0  0  0  0
   58.8745  155.6112   -6.1049 C   0  0  0  0  0  0  0  0  0  0  0  0
   56.9325  154.2522   -6.5728 C   0  0  0  0  0  0  0  0  0  0  0  0
   54.2775  157.0378   -7.9680 C   0  0  0  0  0  0  0  0  0  0  0  0
   54.0443  154.5877   -4.8726 C   0  0  0  0  0  0  0  0  0  0  0  0
   53.8796  156.4951   -6.5909 C   0  0  2  0  0  0  0  0  0  0  0  0
   54.5779  155.1398   -6.2297 C   0  0  1  0  0  0  0  0  0  0  0  0
   53.9981  156.8925   -2.0956 N   0  0  0  0  0  0  0  0  0  0  0  0
   55.4876  155.4914   -3.1207 N   0  0  0  0  0  0  0  0  0  0  0  0
   54.2845  155.4516   -3.7132 N   0  0  0  0  0  0  0  0  0  0  0  0
   52.4357  156.3722   -6.5445 N   0  0  0  0  0  0  0  0  0  0  0  0
   54.2169  154.2038   -7.2567 O   0  0  0  0  0  0  0  0  0  0  0  0
   60.2052  155.7586   -6.0665 F   0  0  0  0  0  0  0  0  0  0  0  0
   56.4074  153.0897   -6.9845 F   0  0  0  0  0  0  0  0  0  0  0  0
   56.0205  157.3363   -5.4566 H   0  0  0  0  0  0  0  0  0  0  0  0
   58.4782  157.6025   -5.3864 H   0  0  0  0  0  0  0  0  0  0  0  0
   58.9641  153.5859   -6.8329 H   0  0  0  0  0  0  0  0  0  0  0  0
   56.0420  156.6552   -1.4560 H   0  0  0  0  0  0  0  0  0  0  0  0
   52.3773  156.4097   -3.4096 H   0  0  0  0  0  0  0  0  0  0  0  0
   54.0570  156.3186   -8.7643 H   0  0  0  0  0  0  0  0  0  0  0  0
   53.7634  157.9753   -8.1992 H   0  0  0  0  0  0  0  0  0  0  0  0
   55.3549  157.2371   -8.0035 H   0  0  0  0  0  0  0  0  0  0  0  0
   54.4866  153.6094   -4.6464 H   0  0  0  0  0  0  0  0  0  0  0  0
   52.9564  154.4455   -4.9067 H   0  0  0  0  0  0  0  0  0  0  0  0
   54.1243  157.2570   -5.8418 H   0  0  0  0  0  0  0  0  0  0  0  0
   51.8819  157.0254   -7.0647 H   0  0  0  0  0  0  0  0  0  0  0  0
   52.0270  155.7810   -5.8464 H   0  0  0  0  0  0  0  0  0  0  0  0
   53.2523  154.1435   -7.2342 H   0  0  0  0  0  0  0  0  0  0  0  0
  1  2  2  0  0  0  0
  1  6  1  0  0  0  0
  2  7  1  0  0  0  0
  3  7  2  0  0  0  0
  3  8  1  0  0  0  0
  4 13  1  0  0  0  0
  4 14  2  0  0  0  0
  5 13  2  0  0  0  0
  5 15  1  0  0  0  0
  6  8  2  0  0  0  0
  6 12  1  0  0  0  0
  7 18  1  0  0  0  0
  8 19  1  0  0  0  0
  9 11  1  0  0  0  0
 10 12  1  0  0  0  0
 10 15  1  0  0  0  0
 11 12  1  0  0  0  0
 11 16  1  0  0  0  0
 12 17  1  0  0  0  0
 14 15  1  0  0  0  0
  1 20  1  0  0  0  0
  2 21  1  0  0  0  0
  3 22  1  0  0  0  0
  4 23  1  0  0  0  0
  5 24  1  0  0  0  0
  9 25  1  0  0  0  0
  9 26  1  0  0  0  0
  9 27  1  0  0  0  0
 10 28  1  0  0  0  0
 10 29  1  0  0  0  0
 11 30  1  0  0  0  0
 16 31  1  0  0  0  0
 16 32  1  0  0  0  0
 17 33  1  0  0  0  0
M  END
> <FRED Chemgauss4 score>
-5.342625

$$$$
C86331608	P135184026
  -OEChem-05122015083D

 20 20  0     1  0  0  0  0  0999 V2000
   57.3804  156.7008   -5.7195 C   0  0  0  0  0  0  0  0  0  0  0  0
   55.3973  155.9389   -3.4801 C   0  0  0  0  0  0  0  0  0  0  0  0
   53.9667  155.3743   -5.2733 C   0  0  0  0  0  0  0  0  0  0  0  0
   53.9780  156.0936   -2.9570 C   0  0  2  0  0  0  0  0  0  0  0  0
   53.1642  155.3001   -3.9727 C   0  0  1  0  0  0  0  0  0  0  0  0
   56.3475  155.6665   -5.7043 C   0  0  0  0  0  0  0  0  0  0  0  0
   58.2025  157.5195   -5.7333 N   0  0  0  0  0  0  0  0  0  0  0  0
   55.1969  156.0947   -4.9252 N   0  0  0  0  0  0  0  0  0  0  0  0
   53.6078  157.4687   -2.9664 O   0  0  0  0  0  0  0  0  0  0  0  0
   51.8534  155.8113   -4.1130 O   0  0  0  0  0  0  0  0  0  0  0  0
   56.0585  156.7076   -3.0573 H   0  0  0  0  0  0  0  0  0  0  0  0
   55.8133  154.9581   -3.2248 H   0  0  0  0  0  0  0  0  0  0  0  0
   54.2347  154.3706   -5.6183 H   0  0  0  0  0  0  0  0  0  0  0  0
   53.3927  155.8725   -6.0636 H   0  0  0  0  0  0  0  0  0  0  0  0
   53.8809  155.6963   -1.9658 H   0  0  0  0  0  0  0  0  0  0  0  0
   53.0591  154.2277   -3.6219 H   0  0  0  0  0  0  0  0  0  0  0  0
   55.9974  155.4440   -6.7164 H   0  0  0  0  0  0  0  0  0  0  0  0
   56.7230  154.7412   -5.2582 H   0  0  0  0  0  0  0  0  0  0  0  0
   54.2350  157.9412   -2.3907 H   0  0  0  0  0  0  0  0  0  0  0  0
   51.4180  155.2730   -4.7922 H   0  0  0  0  0  0  0  0  0  0  0  0
  1  6  1  0  0  0  0
  1  7  3  0  0  0  0
  2  4  1  0  0  0  0
  2  8  1  0  0  0  0
  3  5  1  0  0  0  0
  3  8  1  0  0  0  0
  4  5  1  0  0  0  0
  4  9  1  0  0  0  0
  5 10  1  0  0  0  0
  6  8  1  0  0  0  0
  2 11  1  0  0  0  0
  2 12  1  0  0  0  0
  3 13  1  0  0  0  0
  3 14  1  0  0  0  0
  4 15  1  0  0  0  0
  5 16  1  0  0  0  0
  6 17  1  0  0  0  0
  6 18  1  0  0  0  0
  9 19  1  0  0  0  0
 10 20  1  0  0  0  0
M  END
> <FRED Chemgauss4 score>
-5.342564

$$$$
C42029926	P63621323
  -OEChem-05122015083D

 29 29  0     1  0  0  0  0  0999 V2000
   57.4498  156.5887   -6.3822 C   0  0  0  0  0  0  0  0  0  0  0  0
   55.7499  156.8823   -5.0656 C   0  0  0  0  0  0  0  0  0  0  0  0
   58.3308  155.9873   -7.3990 C   0  0  0  0  0  0  0  0  0  0  0  0
   55.8030  153.6718   -5.5567 C   0  0  0  0  0  0  0  0  0  0  0  0
   54.6864  157.7750   -2.0742 C   0  0  0  0  0  0  0  0  0  0  0  0
   55.6551  154.8361   -6.5210 C   0  0  0  0  0  0  0  0  0  0  0  0
   54.4132  156.6480   -4.3754 C   0  0  1  0  0  0  0  0  0  0  0  0
   54.5893  156.4622   -2.8485 C   0  0  2  0  0  0  0  0  0  0  0  0
   57.6633  157.6925   -5.7020 N   0  0  0  0  0  0  0  0  0  0  0  0
   56.5818  157.8792   -4.8645 N   0  0  0  0  0  0  0  0  0  0  0  0
   56.2566  156.0456   -6.0133 N   0  0  0  0  0  0  0  0  0  0  0  0
   53.4823  157.7387   -4.6855 N   0  0  0  0  0  0  0  0  0  0  0  0
   53.4605  155.7487   -2.3319 O   0  0  0  0  0  0  0  0  0  0  0  0
   59.0444  155.2809   -6.9421 H   0  0  0  0  0  0  0  0  0  0  0  0
   57.7623  155.4356   -8.1683 H   0  0  0  0  0  0  0  0  0  0  0  0
   58.9175  156.7480   -7.9438 H   0  0  0  0  0  0  0  0  0  0  0  0
   56.8577  153.4579   -5.3533 H   0  0  0  0  0  0  0  0  0  0  0  0
   55.3470  152.7703   -5.9775 H   0  0  0  0  0  0  0  0  0  0  0  0
   55.3156  153.8864   -4.5998 H   0  0  0  0  0  0  0  0  0  0  0  0
   53.8247  158.4227   -2.2584 H   0  0  0  0  0  0  0  0  0  0  0  0
   55.5996  158.3193   -2.3388 H   0  0  0  0  0  0  0  0  0  0  0  0
   54.7397  157.5783   -0.9974 H   0  0  0  0  0  0  0  0  0  0  0  0
   54.5970  155.0424   -6.7181 H   0  0  0  0  0  0  0  0  0  0  0  0
   56.1257  154.6032   -7.4829 H   0  0  0  0  0  0  0  0  0  0  0  0
   53.9800  155.7236   -4.7804 H   0  0  0  0  0  0  0  0  0  0  0  0
   55.4767  155.8595   -2.6238 H   0  0  0  0  0  0  0  0  0  0  0  0
   52.7125  157.8778   -4.0725 H   0  0  0  0  0  0  0  0  0  0  0  0
   53.5400  158.1535   -5.5868 H   0  0  0  0  0  0  0  0  0  0  0  0
   53.6398  155.6048   -1.3917 H   0  0  0  0  0  0  0  0  0  0  0  0
  1  3  1  0  0  0  0
  1  9  2  0  0  0  0
  1 11  1  0  0  0  0
  2  7  1  0  0  0  0
  2 10  2  0  0  0  0
  2 11  1  0  0  0  0
  4  6  1  0  0  0  0
  5  8  1  0  0  0  0
  6 11  1  0  0  0  0
  7  8  1  0  0  0  0
  7 12  1  0  0  0  0
  8 13  1  0  0  0  0
  9 10  1  0  0  0  0
  3 14  1  0  0  0  0
  3 15  1  0  0  0  0
  3 16  1  0  0  0  0
  4 17  1  0  0  0  0
  4 18  1  0  0  0  0
  4 19  1  0  0  0  0
  5 20  1  0  0  0  0
  5 21  1  0  0  0  0
  5 22  1  0  0  0  0
  6 23  1  0  0  0  0
  6 24  1  0  0  0  0
  7 25  1  0  0  0  0
  8 26  1  0  0  0  0
 12 27  1  0  0  0  0
 12 28  1  0  0  0  0
 13 29  1  0  0  0  0
M  END
> <FRED Chemgauss4 score>
-5.340828

$$$$
C37225574	P55350836
  -OEChem-05122015083D

 23 22  0     0  0  0  0  0  0999 V2000
   55.5548  158.3854   -2.2712 C   0  0  0  0  0  0  0  0  0  0  0  0
   53.5961  155.9769   -3.4650 C   0  0  0  0  0  0  0  0  0  0  0  0
   56.5787  160.4087   -1.2034 C   0  0  0  0  0  0  0  0  0  0  0  0
   57.9263  159.0341   -2.7426 C   0  0  0  0  0  0  0  0  0  0  0  0
   55.7871  157.2201   -3.2167 C   0  0  0  0  0  0  0  0  0  0  0  0
   53.1277  155.5903   -5.8024 N   0  0  0  0  0  0  0  0  0  0  0  0
   54.5655  156.8835   -3.8901 N   0  0  0  0  0  0  0  0  0  0  0  0
   52.8854  155.3387   -4.4642 N   0  0  0  0  0  0  0  0  0  0  0  0
   56.6446  159.2422   -2.0804 N   0  0  0  0  0  0  0  0  0  0  0  0
   54.4619  158.5435   -1.7206 O   0  0  0  0  0  0  0  0  0  0  0  0
   53.2476  155.6209   -1.8601 S   0  0  0  0  0  0  0  0  0  0  0  0
   56.8762  160.1329   -0.1884 H   0  0  0  0  0  0  0  0  0  0  0  0
   55.5597  160.8040   -1.1763 H   0  0  0  0  0  0  0  0  0  0  0  0
   57.2492  161.1925   -1.5660 H   0  0  0  0  0  0  0  0  0  0  0  0
   57.9423  159.5563   -3.7028 H   0  0  0  0  0  0  0  0  0  0  0  0
   58.0920  157.9679   -2.9191 H   0  0  0  0  0  0  0  0  0  0  0  0
   58.7398  159.4169   -2.1204 H   0  0  0  0  0  0  0  0  0  0  0  0
   56.5214  157.4908   -3.9797 H   0  0  0  0  0  0  0  0  0  0  0  0
   56.1108  156.3367   -2.6604 H   0  0  0  0  0  0  0  0  0  0  0  0
   52.9668  154.7162   -6.3013 H   0  0  0  0  0  0  0  0  0  0  0  0
   54.1241  155.7854   -5.8898 H   0  0  0  0  0  0  0  0  0  0  0  0
   54.3696  157.3543   -4.7763 H   0  0  0  0  0  0  0  0  0  0  0  0
   52.1632  154.6634   -4.2351 H   0  0  0  0  0  0  0  0  0  0  0  0
  1  5  1  0  0  0  0
  1  9  1  0  0  0  0
  1 10  2  0  0  0  0
  2  7  1  0  0  0  0
  2  8  1  0  0  0  0
  2 11  2  0  0  0  0
  3  9  1  0  0  0  0
  4  9  1  0  0  0  0
  5  7  1  0  0  0  0
  6  8  1  0  0  0  0
  3 12  1  0  0  0  0
  3 13  1  0  0  0  0
  3 14  1  0  0  0  0
  4 15  1  0  0  0  0
  4 16  1  0  0  0  0
  4 17  1  0  0  0  0
  5 18  1  0  0  0  0
  5 19  1  0  0  0  0
  6 20  1  0  0  0  0
  6 21  1  0  0  0  0
  7 22  1  0  0  0  0
  8 23  1  0  0  0  0
M  END
> <FRED Chemgauss4 score>
-5.340324

$$$$
C85302973	P133481584
  -OEChem-05122015083D

 41 42  0     1  0  0  0  0  0999 V2000
   55.8275  160.2555   -4.2164 C   0  0  0  0  0  0  0  0  0  0  0  0
   54.6058  161.1077   -4.4188 C   0  0  0  0  0  0  0  0  0  0  0  0
   55.4154  155.5297   -6.6369 C   0  0  0  0  0  0  0  0  0  0  0  0
   56.6190  157.5715   -6.1715 C   0  0  0  0  0  0  0  0  0  0  0  0
   56.6664  154.6995   -6.3537 C   0  0  0  0  0  0  0  0  0  0  0  0
   57.8937  156.7813   -5.8789 C   0  0  0  0  0  0  0  0  0  0  0  0
   54.8120  159.8778   -5.2590 C   0  0  0  0  0  0  0  0  0  0  0  0
   58.9881  153.4850   -7.9697 C   0  0  0  0  0  0  0  0  0  0  0  0
   54.2096  157.5480   -6.1052 C   0  0  0  0  0  0  0  0  0  0  0  0
   53.9641  158.1322   -3.6021 C   0  0  0  0  0  0  0  0  0  0  0  0
   53.9197  158.6457   -5.0577 C   0  0  1  0  0  0  0  0  0  0  0  0
   55.4253  156.7745   -5.8556 N   0  0  0  0  0  0  0  0  0  0  0  0
   57.8804  155.5097   -6.6563 N   0  0  0  0  0  0  0  0  0  0  0  0
   53.0903  157.0010   -3.3208 N   0  0  0  0  0  0  0  0  0  0  0  0
   59.4832  153.9077   -5.4392 O   0  0  0  0  0  0  0  0  0  0  0  0
   60.4047  155.5223   -7.1508 O   0  0  0  0  0  0  0  0  0  0  0  0
   52.5623  159.0737   -5.2714 O   0  0  0  0  0  0  0  0  0  0  0  0
   59.3577  154.6437   -6.6779 S   0  0  0  0  0  0  0  0  0  0  0  0
   56.7799  160.6563   -4.5407 H   0  0  0  0  0  0  0  0  0  0  0  0
   55.8772  159.6508   -3.3192 H   0  0  0  0  0  0  0  0  0  0  0  0
   53.8366  161.0745   -3.6570 H   0  0  0  0  0  0  0  0  0  0  0  0
   54.7403  162.0789   -4.8788 H   0  0  0  0  0  0  0  0  0  0  0  0
   55.3525  155.7483   -7.7114 H   0  0  0  0  0  0  0  0  0  0  0  0
   54.5369  154.9295   -6.3713 H   0  0  0  0  0  0  0  0  0  0  0  0
   56.6308  158.4826   -5.5614 H   0  0  0  0  0  0  0  0  0  0  0  0
   56.6108  157.8807   -7.2254 H   0  0  0  0  0  0  0  0  0  0  0  0
   56.6898  154.3751   -5.3065 H   0  0  0  0  0  0  0  0  0  0  0  0
   56.6562  153.8092   -6.9920 H   0  0  0  0  0  0  0  0  0  0  0  0
   58.7612  157.3799   -6.1777 H   0  0  0  0  0  0  0  0  0  0  0  0
   57.9773  156.5598   -4.8082 H   0  0  0  0  0  0  0  0  0  0  0  0
   55.0823  160.0188   -6.2986 H   0  0  0  0  0  0  0  0  0  0  0  0
   59.8560  152.8392   -8.1116 H   0  0  0  0  0  0  0  0  0  0  0  0
   58.1197  152.8977   -7.6673 H   0  0  0  0  0  0  0  0  0  0  0  0
   58.7736  154.0435   -8.8820 H   0  0  0  0  0  0  0  0  0  0  0  0
   53.3521  156.8659   -6.1653 H   0  0  0  0  0  0  0  0  0  0  0  0
   54.2889  158.0051   -7.0993 H   0  0  0  0  0  0  0  0  0  0  0  0
   54.9946  157.8562   -3.3442 H   0  0  0  0  0  0  0  0  0  0  0  0
   53.7055  158.9541   -2.9228 H   0  0  0  0  0  0  0  0  0  0  0  0
   52.7642  156.8770   -2.3851 H   0  0  0  0  0  0  0  0  0  0  0  0
   53.0114  156.2821   -4.0095 H   0  0  0  0  0  0  0  0  0  0  0  0
   52.0160  158.2880   -5.1411 H   0  0  0  0  0  0  0  0  0  0  0  0
  1  2  1  0  0  0  0
  1  7  1  0  0  0  0
  2  7  1  0  0  0  0
  3  5  1  0  0  0  0
  3 12  1  0  0  0  0
  4  6  1  0  0  0  0
  4 12  1  0  0  0  0
  5 13  1  0  0  0  0
  6 13  1  0  0  0  0
  7 11  1  0  0  0  0
  8 18  1  0  0  0  0
  9 11  1  0  0  0  0
  9 12  1  0  0  0  0
 10 11  1  0  0  0  0
 10 14  1  0  0  0  0
 11 17  1  0  0  0  0
 13 18  1  0  0  0  0
 15 18  2  0  0  0  0
 16 18  2  0  0  0  0
  1 19  1  0  0  0  0
  1 20  1  0  0  0  0
  2 21  1  0  0  0  0
  2 22  1  0  0  0  0
  3 23  1  0  0  0  0
  3 24  1  0  0  0  0
  4 25  1  0  0  0  0
  4 26  1  0  0  0  0
  5 27  1  0  0  0  0
  5 28  1  0  0  0  0
  6 29  1  0  0  0  0
  6 30  1  0  0  0  0
  7 31  1  0  0  0  0
  8 32  1  0  0  0  0
  8 33  1  0  0  0  0
  8 34  1  0  0  0  0
  9 35  1  0  0  0  0
  9 36  1  0  0  0  0
 10 37  1  0  0  0  0
 10 38  1  0  0  0  0
 14 39  1  0  0  0  0
 14 40  1  0  0  0  0
 17 41  1  0  0  0  0
M  END
> <FRED Chemgauss4 score>
-5.340087

$$$$
C54435940	P81924864
  -OEChem-05122015083D

 31 31  0     1  0  0  0  0  0999 V2000
   56.2227  154.9704   -6.3106 C   0  0  0  0  0  0  0  0  0  0  0  0
   55.4857  156.2270   -4.7960 C   0  0  0  0  0  0  0  0  0  0  0  0
   61.9325  156.9581   -8.6522 C   0  0  0  0  0  0  0  0  0  0  0  0
   56.3454  157.6739   -2.9044 C   0  0  0  0  0  0  0  0  0  0  0  0
   56.9661  153.7978   -6.8838 C   0  0  0  0  0  0  0  0  0  0  0  0
   60.4494  156.6530   -8.5440 C   0  0  0  0  0  0  0  0  0  0  0  0
   58.4770  154.0097   -6.9084 C   0  0  0  0  0  0  0  0  0  0  0  0
   60.1876  155.4031   -7.7177 C   0  0  0  0  0  0  0  0  0  0  0  0
   55.2703  156.6909   -3.4197 C   0  0  1  0  0  0  0  0  0  0  0  0
   55.5470  155.9141   -6.9235 N   0  0  0  0  0  0  0  0  0  0  0  0
   55.0623  156.7408   -5.9271 N   0  0  0  0  0  0  0  0  0  0  0  0
   53.9675  157.3232   -3.2191 N   0  0  0  0  0  0  0  0  0  0  0  0
   56.2310  155.0992   -4.9556 O   0  0  0  0  0  0  0  0  0  0  0  0
   58.7869  155.1693   -7.6697 O   0  0  0  0  0  0  0  0  0  0  0  0
   62.3797  157.0864   -7.6613 H   0  0  0  0  0  0  0  0  0  0  0  0
   62.4532  156.1377   -9.1559 H   0  0  0  0  0  0  0  0  0  0  0  0
   62.1037  157.8733   -9.2278 H   0  0  0  0  0  0  0  0  0  0  0  0
   56.4099  158.5453   -3.5652 H   0  0  0  0  0  0  0  0  0  0  0  0
   56.1250  158.0312   -1.8922 H   0  0  0  0  0  0  0  0  0  0  0  0
   57.3336  157.2016   -2.8708 H   0  0  0  0  0  0  0  0  0  0  0  0
   56.7302  152.8951   -6.3057 H   0  0  0  0  0  0  0  0  0  0  0  0
   56.6142  153.6160   -7.9072 H   0  0  0  0  0  0  0  0  0  0  0  0
   60.0210  156.5282   -9.5457 H   0  0  0  0  0  0  0  0  0  0  0  0
   59.9253  157.5061   -8.0968 H   0  0  0  0  0  0  0  0  0  0  0  0
   58.8450  154.1695   -5.8897 H   0  0  0  0  0  0  0  0  0  0  0  0
   59.0018  153.1521   -7.3419 H   0  0  0  0  0  0  0  0  0  0  0  0
   60.6715  154.5296   -8.1662 H   0  0  0  0  0  0  0  0  0  0  0  0
   60.5553  155.5273   -6.6942 H   0  0  0  0  0  0  0  0  0  0  0  0
   55.2655  155.8408   -2.7020 H   0  0  0  0  0  0  0  0  0  0  0  0
   53.8733  157.9720   -2.4690 H   0  0  0  0  0  0  0  0  0  0  0  0
   53.1828  156.9388   -3.6977 H   0  0  0  0  0  0  0  0  0  0  0  0
  1  5  1  0  0  0  0
  1 10  2  0  0  0  0
  1 13  1  0  0  0  0
  2  9  1  0  0  0  0
  2 11  2  0  0  0  0
  2 13  1  0  0  0  0
  3  6  1  0  0  0  0
  4  9  1  0  0  0  0
  5  7  1  0  0  0  0
  6  8  1  0  0  0  0
  7 14  1  0  0  0  0
  8 14  1  0  0  0  0
  9 12  1  0  0  0  0
 10 11  1  0  0  0  0
  3 15  1  0  0  0  0
  3 16  1  0  0  0  0
  3 17  1  0  0  0  0
  4 18  1  0  0  0  0
  4 19  1  0  0  0  0
  4 20  1  0  0  0  0
  5 21  1  0  0  0  0
  5 22  1  0  0  0  0
  6 23  1  0  0  0  0
  6 24  1  0  0  0  0
  7 25  1  0  0  0  0
  7 26  1  0  0  0  0
  8 27  1  0  0  0  0
  8 28  1  0  0  0  0
  9 29  1  0  0  0  0
 12 30  1  0  0  0  0
 12 31  1  0  0  0  0
M  END
> <FRED Chemgauss4 score>
-5.335689

$$$$
C17173856	P25815810
  -OEChem-05122015083D

 23 23  0     1  0  0  0  0  0999 V2000
   54.2943  156.1221   -5.6979 C   0  0  0  0  0  0  0  0  0  0  0  0
   54.3563  157.6561   -5.6347 C   0  0  1  0  0  0  0  0  0  0  0  0
   53.3370  155.5620   -4.6551 C   0  0  1  0  0  0  0  0  0  0  0  0
   53.9035  158.2079   -4.2700 C   0  0  2  0  0  0  0  0  0  0  0  0
   53.7597  156.0337   -3.2539 C   0  0  1  0  0  0  0  0  0  0  0  0
   54.4381  159.6048   -3.9760 C   0  0  0  0  0  0  0  0  0  0  0  0
   54.3476  157.3398   -3.2280 O   0  0  0  0  0  0  0  0  0  0  0  0
   55.6976  158.0536   -5.9175 O   0  0  0  0  0  0  0  0  0  0  0  0
   52.0101  156.0004   -4.9506 O   0  0  0  0  0  0  0  0  0  0  0  0
   52.6579  155.9328   -2.3582 O   0  0  0  0  0  0  0  0  0  0  0  0
   53.9813  160.4851   -4.9870 O   0  0  0  0  0  0  0  0  0  0  0  0
   53.9800  155.8056   -6.7040 H   0  0  0  0  0  0  0  0  0  0  0  0
   55.2944  155.6908   -5.5436 H   0  0  0  0  0  0  0  0  0  0  0  0
   53.7245  158.0718   -6.4399 H   0  0  0  0  0  0  0  0  0  0  0  0
   53.3630  154.4822   -4.6935 H   0  0  0  0  0  0  0  0  0  0  0  0
   52.8076  158.2490   -4.2482 H   0  0  0  0  0  0  0  0  0  0  0  0
   54.5264  155.3210   -2.8637 H   0  0  0  0  0  0  0  0  0  0  0  0
   55.5283  159.5940   -3.9740 H   0  0  0  0  0  0  0  0  0  0  0  0
   54.0725  159.9481   -3.0079 H   0  0  0  0  0  0  0  0  0  0  0  0
   55.8999  157.7238   -6.8061 H   0  0  0  0  0  0  0  0  0  0  0  0
   51.7942  155.6638   -5.8353 H   0  0  0  0  0  0  0  0  0  0  0  0
   52.9762  156.2402   -1.4959 H   0  0  0  0  0  0  0  0  0  0  0  0
   54.3342  161.3668   -4.7782 H   0  0  0  0  0  0  0  0  0  0  0  0
  1  2  1  0  0  0  0
  1  3  1  0  0  0  0
  2  4  1  0  0  0  0
  2  8  1  0  0  0  0
  3  5  1  0  0  0  0
  3  9  1  0  0  0  0
  4  6  1  0  0  0  0
  4  7  1  0  0  0  0
  5  7  1  0  0  0  0
  5 10  1  0  0  0  0
  6 11  1  0  0  0  0
  1 12  1  0  0  0  0
  1 13  1  0  0  0  0
  2 14  1  0  0  0  0
  3 15  1  0  0  0  0
  4 16  1  0  0  0  0
  5 17  1  0  0  0  0
  6 18  1  0  0  0  0
  6 19  1  0  0  0  0
  8 20  1  0  0  0  0
  9 21  1  0  0  0  0
 10 22  1  0  0  0  0
 11 23  1  0  0  0  0
M  END
> <FRED Chemgauss4 score>
-5.333878

$$$$
C70199674	P108209758
  -OEChem-05122015083D

 18 17  0     0  0  0  0  0  0999 V2000
   57.4232  153.7783   -6.1492 C   0  0  0  0  0  0  0  0  0  0  0  0
   56.7514  154.7698   -6.2334 C   0  0  0  0  0  0  0  0  0  0  0  0
   53.4024  155.6951   -3.6805 C   0  0  0  0  0  0  0  0  0  0  0  0
   55.9329  155.9799   -6.3416 C   0  0  0  0  0  0  0  0  0  0  0  0
   54.4015  155.1560   -4.6871 C   0  0  0  0  0  0  0  0  0  0  0  0
   53.8942  156.2138   -2.5938 N   0  0  0  0  0  0  0  0  0  0  0  0
   52.0752  155.5901   -4.0286 N   0  0  0  0  0  0  0  0  0  0  0  0
   55.2630  156.2622   -5.0790 N   0  0  0  0  0  0  0  0  0  0  0  0
   55.2904  156.1458   -2.6177 O   0  0  0  0  0  0  0  0  0  0  0  0
   58.0186  152.8985   -6.0742 H   0  0  0  0  0  0  0  0  0  0  0  0
   55.1803  155.8611   -7.1271 H   0  0  0  0  0  0  0  0  0  0  0  0
   56.5602  156.8344   -6.6147 H   0  0  0  0  0  0  0  0  0  0  0  0
   53.8795  154.7458   -5.5572 H   0  0  0  0  0  0  0  0  0  0  0  0
   54.9962  154.3598   -4.2285 H   0  0  0  0  0  0  0  0  0  0  0  0
   51.7825  155.1788   -4.9086 H   0  0  0  0  0  0  0  0  0  0  0  0
   51.3459  155.9296   -3.4109 H   0  0  0  0  0  0  0  0  0  0  0  0
   54.7008  157.1072   -5.1797 H   0  0  0  0  0  0  0  0  0  0  0  0
   55.5204  156.5578   -1.7678 H   0  0  0  0  0  0  0  0  0  0  0  0
  1  2  3  0  0  0  0
  2  4  1  0  0  0  0
  3  5  1  0  0  0  0
  3  6  2  0  0  0  0
  3  7  1  0  0  0  0
  4  8  1  0  0  0  0
  5  8  1  0  0  0  0
  6  9  1  0  0  0  0
  1 10  1  0  0  0  0
  4 11  1  0  0  0  0
  4 12  1  0  0  0  0
  5 13  1  0  0  0  0
  5 14  1  0  0  0  0
  7 15  1  0  0  0  0
  7 16  1  0  0  0  0
  8 17  1  0  0  0  0
  9 18  1  0  0  0  0
M  END
> <FRED Chemgauss4 score>
-5.331107

$$$$
C13510329	P20803174
  -OEChem-05122015083D

 17 17  0     1  0  0  0  0  0999 V2000
   56.3450  156.4316   -5.3809 C   0  0  0  0  0  0  0  0  0  0  0  0
   55.9190  154.9977   -5.3569 C   0  0  1  0  0  0  0  0  0  0  0  0
   54.4318  155.1129   -5.1200 C   0  0  1  0  0  0  0  0  0  0  0  0
   54.3310  156.3572   -4.2570 C   0  0  1  0  0  0  0  0  0  0  0  0
   54.5016  156.0871   -2.7691 C   0  0  0  0  0  0  0  0  0  0  0  0
   57.3622  156.8672   -5.8956 O   0  0  0  0  0  0  0  0  0  0  0  0
   55.4221  157.1877   -4.7068 O   0  0  0  0  0  0  0  0  0  0  0  0
   53.7674  155.3635   -6.3570 O   0  0  0  0  0  0  0  0  0  0  0  0
   53.4813  155.1980   -2.3489 O   0  0  0  0  0  0  0  0  0  0  0  0
   56.1841  154.3416   -6.5094 F   0  0  0  0  0  0  0  0  0  0  0  0
   56.4311  154.4948   -4.5315 H   0  0  0  0  0  0  0  0  0  0  0  0
   53.9900  154.2182   -4.6731 H   0  0  0  0  0  0  0  0  0  0  0  0
   53.3991  156.9042   -4.4370 H   0  0  0  0  0  0  0  0  0  0  0  0
   54.4188  157.0184   -2.2063 H   0  0  0  0  0  0  0  0  0  0  0  0
   55.4745  155.6310   -2.5789 H   0  0  0  0  0  0  0  0  0  0  0  0
   52.8220  155.4288   -6.1531 H   0  0  0  0  0  0  0  0  0  0  0  0
   53.6132  155.0428   -1.3983 H   0  0  0  0  0  0  0  0  0  0  0  0
  1  2  1  0  0  0  0
  1  6  2  0  0  0  0
  1  7  1  0  0  0  0
  2  3  1  0  0  0  0
  2 10  1  0  0  0  0
  3  4  1  0  0  0  0
  3  8  1  0  0  0  0
  4  5  1  0  0  0  0
  4  7  1  0  0  0  0
  5  9  1  0  0  0  0
  2 11  1  0  0  0  0
  3 12  1  0  0  0  0
  4 13  1  0  0  0  0
  5 14  1  0  0  0  0
  5 15  1  0  0  0  0
  8 16  1  0  0  0  0
  9 17  1  0  0  0  0
M  END
> <FRED Chemgauss4 score>
-5.330931

$$$$
C28051436	P41316188
  -OEChem-05122015083D

 20 20  0     0  0  0  0  0  0999 V2000
   58.3991  154.2199   -7.2045 C   0  0  0  0  0  0  0  0  0  0  0  0
   58.1962  156.1641   -6.4724 C   0  0  0  0  0  0  0  0  0  0  0  0
   54.4268  157.6891   -4.6502 C   0  0  0  0  0  0  0  0  0  0  0  0
   55.7779  157.1132   -5.0340 C   0  0  0  0  0  0  0  0  0  0  0  0
   55.6796  156.1277   -6.1942 C   0  0  0  0  0  0  0  0  0  0  0  0
   59.1241  155.3318   -6.8840 N   0  0  0  0  0  0  0  0  0  0  0  0
   57.0808  154.3120   -7.0171 N   0  0  0  0  0  0  0  0  0  0  0  0
   56.9776  155.5650   -6.5485 N   0  0  0  0  0  0  0  0  0  0  0  0
   52.6125  158.9562   -5.5334 N   0  0  0  0  0  0  0  0  0  0  0  0
   53.8479  158.3677   -5.7095 N   0  0  0  0  0  0  0  0  0  0  0  0
   53.9330  157.5550   -3.5334 O   0  0  0  0  0  0  0  0  0  0  0  0
   58.8453  153.3133   -7.5850 H   0  0  0  0  0  0  0  0  0  0  0  0
   58.3460  157.1745   -6.1189 H   0  0  0  0  0  0  0  0  0  0  0  0
   56.2046  156.6189   -4.1525 H   0  0  0  0  0  0  0  0  0  0  0  0
   56.4438  157.9440   -5.2981 H   0  0  0  0  0  0  0  0  0  0  0  0
   55.2682  156.6110   -7.0888 H   0  0  0  0  0  0  0  0  0  0  0  0
   55.0091  155.2948   -5.9490 H   0  0  0  0  0  0  0  0  0  0  0  0
   52.1249  158.8930   -6.4263 H   0  0  0  0  0  0  0  0  0  0  0  0
   52.0926  158.3644   -4.8868 H   0  0  0  0  0  0  0  0  0  0  0  0
   54.2963  158.4530   -6.6163 H   0  0  0  0  0  0  0  0  0  0  0  0
  1  6  1  0  0  0  0
  1  7  2  0  0  0  0
  2  6  2  0  0  0  0
  2  8  1  0  0  0  0
  3  4  1  0  0  0  0
  3 10  1  0  0  0  0
  3 11  2  0  0  0  0
  4  5  1  0  0  0  0
  5  8  1  0  0  0  0
  7  8  1  0  0  0  0
  9 10  1  0  0  0  0
  1 12  1  0  0  0  0
  2 13  1  0  0  0  0
  4 14  1  0  0  0  0
  4 15  1  0  0  0  0
  5 16  1  0  0  0  0
  5 17  1  0  0  0  0
  9 18  1  0  0  0  0
  9 19  1  0  0  0  0
 10 20  1  0  0  0  0
M  END
> <FRED Chemgauss4 score>
-5.329587

$$$$
C37461511	P55710219
  -OEChem-05122015083D

 27 27  0     1  0  0  0  0  0999 V2000
   56.0308  154.5895   -5.8161 C   0  0  0  0  0  0  0  0  0  0  0  0
   53.9358  156.4451   -3.2288 C   0  0  0  0  0  0  0  0  0  0  0  0
   56.2796  156.6096   -4.2571 C   0  0  0  0  0  0  0  0  0  0  0  0
   55.7883  155.2110   -4.5092 C   0  0  1  0  0  0  0  0  0  0  0  0
   54.8055  156.3533   -4.4070 C   0  0  1  0  0  0  0  0  0  0  0  0
   57.8183  154.0242   -7.4495 C   0  0  0  0  0  0  0  0  0  0  0  0
   59.3197  154.1562   -7.6181 C   0  0  0  0  0  0  0  0  0  0  0  0
   61.5253  155.6180   -7.8413 N   0  0  0  0  0  0  0  0  0  0  0  0
   57.3581  154.5875   -6.2005 N   0  0  0  0  0  0  0  0  0  0  0  0
   55.0882  154.1326   -6.4520 O   0  0  0  0  0  0  0  0  0  0  0  0
   53.8600  157.4126   -2.4862 O   0  0  0  0  0  0  0  0  0  0  0  0
   59.3127  156.4632   -8.8449 O   0  0  0  0  0  0  0  0  0  0  0  0
   59.5988  156.4151   -6.3347 O   0  0  0  0  0  0  0  0  0  0  0  0
   53.2228  155.3033   -3.0700 O   0  0  0  0  0  0  0  0  0  0  0  0
   59.8465  155.8413   -7.6457 S   0  0  0  0  0  0  0  0  0  0  0  0
   56.6695  156.8344   -3.2713 H   0  0  0  0  0  0  0  0  0  0  0  0
   56.7816  157.1361   -5.0604 H   0  0  0  0  0  0  0  0  0  0  0  0
   55.8421  154.5235   -3.6711 H   0  0  0  0  0  0  0  0  0  0  0  0
   54.3478  156.7005   -5.3279 H   0  0  0  0  0  0  0  0  0  0  0  0
   57.2775  154.5267   -8.2575 H   0  0  0  0  0  0  0  0  0  0  0  0
   57.5313  152.9683   -7.4469 H   0  0  0  0  0  0  0  0  0  0  0  0
   59.6356  153.7214   -8.5711 H   0  0  0  0  0  0  0  0  0  0  0  0
   59.8646  153.6635   -6.8072 H   0  0  0  0  0  0  0  0  0  0  0  0
   61.9378  155.8630   -8.7498 H   0  0  0  0  0  0  0  0  0  0  0  0
   62.1325  155.8301   -7.0402 H   0  0  0  0  0  0  0  0  0  0  0  0
   58.0431  155.0016   -5.5754 H   0  0  0  0  0  0  0  0  0  0  0  0
   52.6357  155.3442   -2.2852 H   0  0  0  0  0  0  0  0  0  0  0  0
  1  4  1  0  0  0  0
  1  9  1  0  0  0  0
  1 10  2  0  0  0  0
  2  5  1  0  0  0  0
  2 11  2  0  0  0  0
  2 14  1  0  0  0  0
  3  4  1  0  0  0  0
  3  5  1  0  0  0  0
  4  5  1  0  0  0  0
  6  7  1  0  0  0  0
  6  9  1  0  0  0  0
  7 15  1  0  0  0  0
  8 15  1  0  0  0  0
 12 15  2  0  0  0  0
 13 15  2  0  0  0  0
  3 16  1  0  0  0  0
  3 17  1  0  0  0  0
  4 18  1  0  0  0  0
  5 19  1  0  0  0  0
  6 20  1  0  0  0  0
  6 21  1  0  0  0  0
  7 22  1  0  0  0  0
  7 23  1  0  0  0  0
  8 24  1  0  0  0  0
  8 25  1  0  0  0  0
  9 26  1  0  0  0  0
 14 27  1  0  0  0  0
M  END
> <FRED Chemgauss4 score>
-5.325982

$$$$
C86434335	P135332703
  -OEChem-05122015083D

 28 27  0     0  0  0  0  0  0999 V2000
   53.7416  154.9604   -4.8947 C   0  0  0  0  0  0  0  0  0  0  0  0
   56.6135  155.7743   -6.3548 C   0  0  0  0  0  0  0  0  0  0  0  0
   55.9504  153.4236   -6.6796 C   0  0  0  0  0  0  0  0  0  0  0  0
   54.1691  155.0902   -6.3385 C   0  0  0  0  0  0  0  0  0  0  0  0
   56.1992  157.2103   -6.1121 C   0  0  0  0  0  0  0  0  0  0  0  0
   54.2226  158.6498   -3.3618 C   0  0  0  0  0  0  0  0  0  0  0  0
   55.0251  158.6266   -4.6499 C   0  0  0  0  0  0  0  0  0  0  0  0
   52.3991  155.2198   -4.7206 N   0  0  0  0  0  0  0  0  0  0  0  0
   55.0484  158.1203   -2.2525 N   0  0  0  0  0  0  0  0  0  0  0  0
   55.6000  154.8207   -6.4549 N   0  0  0  0  0  0  0  0  0  0  0  0
   54.4929  154.6179   -3.9857 O   0  0  0  0  0  0  0  0  0  0  0  0
   57.8167  155.5116   -6.4454 O   0  0  0  0  0  0  0  0  0  0  0  0
   55.4408  157.2918   -4.9244 O   0  0  0  0  0  0  0  0  0  0  0  0
   56.0838  152.9113   -5.7232 H   0  0  0  0  0  0  0  0  0  0  0  0
   56.8814  153.3543   -7.2488 H   0  0  0  0  0  0  0  0  0  0  0  0
   55.1582  152.9208   -7.2408 H   0  0  0  0  0  0  0  0  0  0  0  0
   53.9834  156.1012   -6.7113 H   0  0  0  0  0  0  0  0  0  0  0  0
   53.6262  154.3622   -6.9474 H   0  0  0  0  0  0  0  0  0  0  0  0
   57.0702  157.8680   -6.0512 H   0  0  0  0  0  0  0  0  0  0  0  0
   55.5858  157.5599   -6.9491 H   0  0  0  0  0  0  0  0  0  0  0  0
   53.9147  159.6682   -3.1043 H   0  0  0  0  0  0  0  0  0  0  0  0
   53.3331  158.0196   -3.4558 H   0  0  0  0  0  0  0  0  0  0  0  0
   55.9220  159.2447   -4.5438 H   0  0  0  0  0  0  0  0  0  0  0  0
   54.4368  158.9936   -5.4973 H   0  0  0  0  0  0  0  0  0  0  0  0
   51.8091  155.4653   -5.5086 H   0  0  0  0  0  0  0  0  0  0  0  0
   51.9502  155.1756   -3.8113 H   0  0  0  0  0  0  0  0  0  0  0  0
   54.5685  157.7339   -1.4808 H   0  0  0  0  0  0  0  0  0  0  0  0
   56.0057  158.3631   -2.2506 H   0  0  0  0  0  0  0  0  0  0  0  0
  1  4  1  0  0  0  0
  1  8  1  0  0  0  0
  1 11  2  0  0  0  0
  2  5  1  0  0  0  0
  2 10  1  0  0  0  0
  2 12  2  0  0  0  0
  3 10  1  0  0  0  0
  4 10  1  0  0  0  0
  5 13  1  0  0  0  0
  6  7  1  0  0  0  0
  6  9  1  0  0  0  0
  7 13  1  0  0  0  0
  3 14  1  0  0  0  0
  3 15  1  0  0  0  0
  3 16  1  0  0  0  0
  4 17  1  0  0  0  0
  4 18  1  0  0  0  0
  5 19  1  0  0  0  0
  5 20  1  0  0  0  0
  6 21  1  0  0  0  0
  6 22  1  0  0  0  0
  7 23  1  0  0  0  0
  7 24  1  0  0  0  0
  8 25  1  0  0  0  0
  8 26  1  0  0  0  0
  9 27  1  0  0  0  0
  9 28  1  0  0  0  0
M  END
> <FRED Chemgauss4 score>
-5.323112

$$$$
C70948188	P109520132
  -OEChem-05122015083D

 37 37  0     1  0  0  0  0  0999 V2000
   56.0538  160.0908   -3.3333 C   0  0  0  0  0  0  0  0  0  0  0  0
   55.3618  159.0339   -2.8534 C   0  0  0  0  0  0  0  0  0  0  0  0
   56.1766  160.2245   -4.8195 C   0  0  0  0  0  0  0  0  0  0  0  0
   54.8571  158.2101   -4.9219 C   0  0  0  0  0  0  0  0  0  0  0  0
   55.1979  158.7682   -1.3792 C   0  0  0  0  0  0  0  0  0  0  0  0
   58.2058  161.1876   -2.7640 C   0  0  0  0  0  0  0  0  0  0  0  0
   56.0862  162.5353   -2.8608 C   0  0  0  0  0  0  0  0  0  0  0  0
   56.4460  156.4124   -6.7438 C   0  0  0  0  0  0  0  0  0  0  0  0
   55.4279  155.2563   -4.7770 C   0  0  0  0  0  0  0  0  0  0  0  0
   56.6994  161.1786   -2.5269 C   0  0  0  0  0  0  0  0  0  0  0  0
   54.2200  157.2081   -5.8404 C   0  0  1  0  0  0  0  0  0  0  0  0
   55.1262  155.9942   -6.0861 C   0  0  0  0  0  0  0  0  0  0  0  0
   54.7505  158.0782   -3.6391 N   0  0  0  0  0  0  0  0  0  0  0  0
   55.5384  159.2335   -5.5343 N   0  0  0  0  0  0  0  0  0  0  0  0
   53.0121  156.8646   -5.1400 N   0  0  0  0  0  0  0  0  0  0  0  0
   56.8003  161.1452   -5.3398 O   0  0  0  0  0  0  0  0  0  0  0  0
   54.3027  159.2691   -1.0246 H   0  0  0  0  0  0  0  0  0  0  0  0
   56.0675  159.1458   -0.8501 H   0  0  0  0  0  0  0  0  0  0  0  0
   55.1120  157.6982   -1.2176 H   0  0  0  0  0  0  0  0  0  0  0  0
   58.4478  161.3951   -3.8125 H   0  0  0  0  0  0  0  0  0  0  0  0
   58.6517  160.2218   -2.5012 H   0  0  0  0  0  0  0  0  0  0  0  0
   58.6884  161.9551   -2.1492 H   0  0  0  0  0  0  0  0  0  0  0  0
   56.2481  162.7922   -3.9136 H   0  0  0  0  0  0  0  0  0  0  0  0
   56.5185  163.3357   -2.2493 H   0  0  0  0  0  0  0  0  0  0  0  0
   55.0055  162.5232   -2.6834 H   0  0  0  0  0  0  0  0  0  0  0  0
   56.9978  157.1188   -6.1155 H   0  0  0  0  0  0  0  0  0  0  0  0
   56.2617  156.9049   -7.7048 H   0  0  0  0  0  0  0  0  0  0  0  0
   57.0900  155.5454   -6.9269 H   0  0  0  0  0  0  0  0  0  0  0  0
   55.9336  155.9120   -4.0599 H   0  0  0  0  0  0  0  0  0  0  0  0
   54.5108  154.8838   -4.3095 H   0  0  0  0  0  0  0  0  0  0  0  0
   56.0755  154.3918   -4.9592 H   0  0  0  0  0  0  0  0  0  0  0  0
   56.5120  160.9676   -1.4682 H   0  0  0  0  0  0  0  0  0  0  0  0
   53.9440  157.7095   -6.7716 H   0  0  0  0  0  0  0  0  0  0  0  0
   54.6221  155.2895   -6.7610 H   0  0  0  0  0  0  0  0  0  0  0  0
   55.5731  159.2610   -6.5492 H   0  0  0  0  0  0  0  0  0  0  0  0
   52.5253  156.0173   -5.3862 H   0  0  0  0  0  0  0  0  0  0  0  0
   52.5619  157.5602   -4.5664 H   0  0  0  0  0  0  0  0  0  0  0  0
  1  2  2  0  0  0  0
  1  3  1  0  0  0  0
  1 10  1  0  0  0  0
  2  5  1  0  0  0  0
  2 13  1  0  0  0  0
  3 14  1  0  0  0  0
  3 16  2  0  0  0  0
  4 11  1  0  0  0  0
  4 13  2  0  0  0  0
  4 14  1  0  0  0  0
  6 10  1  0  0  0  0
  7 10  1  0  0  0  0
  8 12  1  0  0  0  0
  9 12  1  0  0  0  0
 11 12  1  0  0  0  0
 11 15  1  0  0  0  0
  5 17  1  0  0  0  0
  5 18  1  0  0  0  0
  5 19  1  0  0  0  0
  6 20  1  0  0  0  0
  6 21  1  0  0  0  0
  6 22  1  0  0  0  0
  7 23  1  0  0  0  0
  7 24  1  0  0  0  0
  7 25  1  0  0  0  0
  8 26  1  0  0  0  0
  8 27  1  0  0  0  0
  8 28  1  0  0  0  0
  9 29  1  0  0  0  0
  9 30  1  0  0  0  0
  9 31  1  0  0  0  0
 10 32  1  0  0  0  0
 11 33  1  0  0  0  0
 12 34  1  0  0  0  0
 14 35  1  0  0  0  0
 15 36  1  0  0  0  0
 15 37  1  0  0  0  0
M  END
> <FRED Chemgauss4 score>
-5.320639

$$$$
C82681682	P129224236
  -OEChem-05122015083D

 24 24  0     1  0  0  0  0  0999 V2000
   56.0556  156.1330   -4.4271 C   0  0  0  0  0  0  0  0  0  0  0  0
   55.4132  155.3563   -5.5750 C   0  0  0  0  0  0  0  0  0  0  0  0
   55.4321  155.7908   -3.0856 C   0  0  0  0  0  0  0  0  0  0  0  0
   53.0934  155.3557   -4.5203 C   0  0  0  0  0  0  0  0  0  0  0  0
   53.9143  155.6390   -5.7810 C   0  0  1  0  0  0  0  0  0  0  0  0
   53.6650  157.0449   -6.3365 C   0  0  0  0  0  0  0  0  0  0  0  0
   52.2685  157.2453   -6.5143 N   0  0  0  0  0  0  0  0  0  0  0  0
   53.1240  155.4596   -1.9098 O   0  0  0  0  0  0  0  0  0  0  0  0
   53.5228  157.5882   -3.1917 O   0  0  0  0  0  0  0  0  0  0  0  0
   53.4400  154.7163   -6.7759 O   0  0  0  0  0  0  0  0  0  0  0  0
   53.6925  156.1561   -3.0485 S   0  0  0  0  0  0  0  0  0  0  0  0
   57.1354  155.9480   -4.4025 H   0  0  0  0  0  0  0  0  0  0  0  0
   55.9277  157.2061   -4.6112 H   0  0  0  0  0  0  0  0  0  0  0  0
   55.9643  155.5679   -6.5043 H   0  0  0  0  0  0  0  0  0  0  0  0
   55.5515  154.2845   -5.3650 H   0  0  0  0  0  0  0  0  0  0  0  0
   55.5425  154.7228   -2.8671 H   0  0  0  0  0  0  0  0  0  0  0  0
   55.9048  156.3568   -2.2744 H   0  0  0  0  0  0  0  0  0  0  0  0
   52.0485  155.6841   -4.6510 H   0  0  0  0  0  0  0  0  0  0  0  0
   53.0790  154.2767   -4.2920 H   0  0  0  0  0  0  0  0  0  0  0  0
   54.1680  157.1292   -7.2884 H   0  0  0  0  0  0  0  0  0  0  0  0
   54.0484  157.7675   -5.6320 H   0  0  0  0  0  0  0  0  0  0  0  0
   51.6787  156.4735   -6.8105 H   0  0  0  0  0  0  0  0  0  0  0  0
   51.8913  158.1878   -6.5463 H   0  0  0  0  0  0  0  0  0  0  0  0
   53.5967  153.8285   -6.4214 H   0  0  0  0  0  0  0  0  0  0  0  0
  1  2  1  0  0  0  0
  1  3  1  0  0  0  0
  2  5  1  0  0  0  0
  3 11  1  0  0  0  0
  4  5  1  0  0  0  0
  4 11  1  0  0  0  0
  5  6  1  0  0  0  0
  5 10  1  0  0  0  0
  6  7  1  0  0  0  0
  8 11  2  0  0  0  0
  9 11  2  0  0  0  0
  1 12  1  0  0  0  0
  1 13  1  0  0  0  0
  2 14  1  0  0  0  0
  2 15  1  0  0  0  0
  3 16  1  0  0  0  0
  3 17  1  0  0  0  0
  4 18  1  0  0  0  0
  4 19  1  0  0  0  0
  6 20  1  0  0  0  0
  6 21  1  0  0  0  0
  7 22  1  0  0  0  0
  7 23  1  0  0  0  0
 10 24  1  0  0  0  0
M  END
> <FRED Chemgauss4 score>
-5.320460

$$$$
C43596919	P128434399
  -OEChem-05122015083D

 29 30  0     1  0  0  0  0  0999 V2000
   61.2911  156.6825   -9.3401 C   0  0  0  0  0  0  0  0  0  0  0  0
   54.6975  157.2827   -5.8946 C   0  0  0  0  0  0  0  0  0  0  0  0
   56.0112  156.9852   -6.2567 C   0  0  0  0  0  0  0  0  0  0  0  0
   59.9948  156.9694   -8.8497 C   0  0  0  0  0  0  0  0  0  0  0  0
   55.4969  159.0297   -4.4297 C   0  0  0  0  0  0  0  0  0  0  0  0
   62.1700  157.2974   -8.4791 C   0  0  0  0  0  0  0  0  0  0  0  0
   54.4403  158.3050   -4.9811 C   0  0  0  0  0  0  0  0  0  0  0  0
   57.0678  157.7099   -5.7054 C   0  0  0  0  0  0  0  0  0  0  0  0
   56.8106  158.7322   -4.7918 C   0  0  0  0  0  0  0  0  0  0  0  0
   60.1741  157.7389   -7.7238 C   0  0  0  0  0  0  0  0  0  0  0  0
   58.9094  156.0529   -5.8572 C   0  0  0  0  0  0  0  0  0  0  0  0
   59.2222  158.3676   -6.7476 C   0  0  0  0  0  0  0  0  0  0  0  0
   53.1115  158.6047   -4.6152 N   0  0  0  0  0  0  0  0  0  0  0  0
   58.3861  157.3820   -6.0946 N   0  0  3  0  0  0  0  0  0  0  0  0
   61.4971  157.9434   -7.4910 O   0  0  0  0  0  0  0  0  0  0  0  0
   58.2109  159.7486   -4.0109 Br  0  0  0  0  0  0  0  0  0  0  0  0
   61.5522  156.1008  -10.2123 H   0  0  0  0  0  0  0  0  0  0  0  0
   53.8820  156.7108   -6.3297 H   0  0  0  0  0  0  0  0  0  0  0  0
   56.1987  156.1865   -6.9703 H   0  0  0  0  0  0  0  0  0  0  0  0
   59.0496  156.6534   -9.2675 H   0  0  0  0  0  0  0  0  0  0  0  0
   55.2872  159.8250   -3.7175 H   0  0  0  0  0  0  0  0  0  0  0  0
   63.2470  157.3662   -8.4338 H   0  0  0  0  0  0  0  0  0  0  0  0
   59.9376  155.9833   -6.2217 H   0  0  0  0  0  0  0  0  0  0  0  0
   58.3005  155.3085   -6.3773 H   0  0  0  0  0  0  0  0  0  0  0  0
   58.8993  155.8283   -4.7872 H   0  0  0  0  0  0  0  0  0  0  0  0
   59.7697  158.9130   -5.9712 H   0  0  0  0  0  0  0  0  0  0  0  0
   58.5644  159.0863   -7.2475 H   0  0  0  0  0  0  0  0  0  0  0  0
   52.3614  158.1092   -5.0529 H   0  0  0  0  0  0  0  0  0  0  0  0
   52.9372  159.3703   -3.9959 H   0  0  0  0  0  0  0  0  0  0  0  0
  1  4  1  0  0  0  0
  1  6  2  0  0  0  0
  2  3  2  0  0  0  0
  2  7  1  0  0  0  0
  3  8  1  0  0  0  0
  4 10  2  0  0  0  0
  5  7  2  0  0  0  0
  5  9  1  0  0  0  0
  6 15  1  0  0  0  0
  7 13  1  0  0  0  0
  8  9  2  0  0  0  0
  8 14  1  0  0  0  0
  9 16  1  0  0  0  0
 10 12  1  0  0  0  0
 10 15  1  0  0  0  0
 11 14  1  0  0  0  0
 12 14  1  0  0  0  0
  1 17  1  0  0  0  0
  2 18  1  0  0  0  0
  3 19  1  0  0  0  0
  4 20  1  0  0  0  0
  5 21  1  0  0  0  0
  6 22  1  0  0  0  0
 11 23  1  0  0  0  0
 11 24  1  0  0  0  0
 11 25  1  0  0  0  0
 12 26  1  0  0  0  0
 12 27  1  0  0  0  0
 13 28  1  0  0  0  0
 13 29  1  0  0  0  0
M  END
> <FRED Chemgauss4 score>
-5.315331

$$$$
C95922182	P151021485
  -OEChem-05122015083D

 21 21  0     1  0  0  0  0  0999 V2000
   55.1584  155.5748   -5.5502 C   0  0  0  0  0  0  0  0  0  0  0  0
   55.8712  155.8000   -4.4363 C   0  0  0  0  0  0  0  0  0  0  0  0
   53.6563  155.4714   -5.5724 C   0  0  1  0  0  0  0  0  0  0  0  0
   55.2593  156.0322   -3.0807 C   0  0  1  0  0  0  0  0  0  0  0  0
   53.0930  155.2824   -4.1466 C   0  0  1  0  0  0  0  0  0  0  0  0
   53.7364  156.2284   -3.1212 C   0  0  2  0  0  0  0  0  0  0  0  0
   53.0897  156.6437   -6.2476 N   0  0  0  0  0  0  0  0  0  0  0  0
   55.5508  154.9049   -2.2565 O   0  0  0  0  0  0  0  0  0  0  0  0
   51.6766  155.4394   -4.1522 O   0  0  0  0  0  0  0  0  0  0  0  0
   53.4634  157.5887   -3.4545 O   0  0  0  0  0  0  0  0  0  0  0  0
   55.6955  155.4432   -6.4909 H   0  0  0  0  0  0  0  0  0  0  0  0
   56.9591  155.8136   -4.5053 H   0  0  0  0  0  0  0  0  0  0  0  0
   53.4177  154.5944   -6.1711 H   0  0  0  0  0  0  0  0  0  0  0  0
   55.7521  156.8979   -2.6130 H   0  0  0  0  0  0  0  0  0  0  0  0
   53.2659  154.2159   -3.8242 H   0  0  0  0  0  0  0  0  0  0  0  0
   53.3101  156.0503   -2.1252 H   0  0  0  0  0  0  0  0  0  0  0  0
   52.1300  156.8516   -6.0894 H   0  0  0  0  0  0  0  0  0  0  0  0
   53.6181  157.0564   -6.9824 H   0  0  0  0  0  0  0  0  0  0  0  0
   56.5167  154.8463   -2.2043 H   0  0  0  0  0  0  0  0  0  0  0  0
   51.3869  155.3102   -3.2375 H   0  0  0  0  0  0  0  0  0  0  0  0
   53.8710  158.1286   -2.7604 H   0  0  0  0  0  0  0  0  0  0  0  0
  1  2  2  0  0  0  0
  1  3  1  0  0  0  0
  2  4  1  0  0  0  0
  3  5  1  0  0  0  0
  3  7  1  0  0  0  0
  4  6  1  0  0  0  0
  4  8  1  0  0  0  0
  5  6  1  0  0  0  0
  5  9  1  0  0  0  0
  6 10  1  0  0  0  0
  1 11  1  0  0  0  0
  2 12  1  0  0  0  0
  3 13  1  0  0  0  0
  4 14  1  0  0  0  0
  5 15  1  0  0  0  0
  6 16  1  0  0  0  0
  7 17  1  0  0  0  0
  7 18  1  0  0  0  0
  8 19  1  0  0  0  0
  9 20  1  0  0  0  0
 10 21  1  0  0  0  0
M  END
> <FRED Chemgauss4 score>
-5.309671

$$$$
C35644384	P52904168
  -OEChem-05122015083D

 24 24  0     1  0  0  0  0  0999 V2000
   54.5435  155.6154   -3.5636 C   0  0  1  0  0  0  0  0  0  0  0  0
   53.9254  155.2852   -4.9244 C   0  0  2  0  0  0  0  0  0  0  0  0
   55.0254  157.0678   -3.4928 C   0  0  1  0  0  0  0  0  0  0  0  0
   54.8504  155.7045   -6.0759 C   0  0  2  0  0  0  0  0  0  0  0  0
   55.9556  157.3545   -4.6795 C   0  0  2  0  0  0  0  0  0  0  0  0
   56.0273  154.7526   -6.2782 C   0  0  0  0  0  0  0  0  0  0  0  0
   56.3954  158.7497   -4.6506 N   0  0  0  0  0  0  0  0  0  0  0  0
   55.3007  157.0585   -5.9181 O   0  0  0  0  0  0  0  0  0  0  0  0
   53.6050  155.3447   -2.5284 O   0  0  0  0  0  0  0  0  0  0  0  0
   52.6865  155.9876   -5.0605 O   0  0  0  0  0  0  0  0  0  0  0  0
   53.9086  157.9573   -3.5451 O   0  0  0  0  0  0  0  0  0  0  0  0
   55.3994  154.9192   -3.3588 H   0  0  0  0  0  0  0  0  0  0  0  0
   53.7205  154.2216   -4.9772 H   0  0  0  0  0  0  0  0  0  0  0  0
   55.5519  157.2201   -2.5822 H   0  0  0  0  0  0  0  0  0  0  0  0
   54.2530  155.6522   -7.0431 H   0  0  0  0  0  0  0  0  0  0  0  0
   56.8271  156.7547   -4.6055 H   0  0  0  0  0  0  0  0  0  0  0  0
   56.6539  154.7453   -5.3877 H   0  0  0  0  0  0  0  0  0  0  0  0
   56.6227  155.0771   -7.1301 H   0  0  0  0  0  0  0  0  0  0  0  0
   55.6595  153.7445   -6.4635 H   0  0  0  0  0  0  0  0  0  0  0  0
   56.7041  159.1588   -5.5040 H   0  0  0  0  0  0  0  0  0  0  0  0
   56.5620  159.1673   -3.7623 H   0  0  0  0  0  0  0  0  0  0  0  0
   54.0451  155.5697   -1.6951 H   0  0  0  0  0  0  0  0  0  0  0  0
   52.3271  155.7538   -5.9313 H   0  0  0  0  0  0  0  0  0  0  0  0
   53.3475  157.7467   -2.7815 H   0  0  0  0  0  0  0  0  0  0  0  0
  1  2  1  0  0  0  0
  1  3  1  0  0  0  0
  1  9  1  0  0  0  0
  2  4  1  0  0  0  0
  2 10  1  0  0  0  0
  3  5  1  0  0  0  0
  3 11  1  0  0  0  0
  4  6  1  0  0  0  0
  4  8  1  0  0  0  0
  5  7  1  0  0  0  0
  5  8  1  0  0  0  0
  1 12  1  0  0  0  0
  2 13  1  0  0  0  0
  3 14  1  0  0  0  0
  4 15  1  0  0  0  0
  5 16  1  0  0  0  0
  6 17  1  0  0  0  0
  6 18  1  0  0  0  0
  6 19  1  0  0  0  0
  7 20  1  0  0  0  0
  7 21  1  0  0  0  0
  9 22  1  0  0  0  0
 10 23  1  0  0  0  0
 11 24  1  0  0  0  0
M  END
> <FRED Chemgauss4 score>
-5.309283

$$$$
C83467584	P130570487
  -OEChem-05122015083D

 31 31  0     1  0  0  0  0  0999 V2000
   55.2590  156.4418   -2.8697 C   0  0  0  0  0  0  0  0  0  0  0  0
   56.0297  158.1949   -4.2917 C   0  0  0  0  0  0  0  0  0  0  0  0
   56.7614  156.9115   -4.6359 C   0  0  0  0  0  0  0  0  0  0  0  0
   55.5093  157.9380   -2.8807 C   0  0  1  0  0  0  0  0  0  0  0  0
   58.0232  153.6430   -6.5460 C   0  0  0  0  0  0  0  0  0  0  0  0
   54.3428  154.8347   -5.8632 C   0  0  0  0  0  0  0  0  0  0  0  0
   56.6773  154.3295   -6.7261 C   0  0  0  0  0  0  0  0  0  0  0  0
   56.1782  154.4962   -4.1928 C   0  0  0  0  0  0  0  0  0  0  0  0
   55.6612  154.1038   -5.5865 C   0  0  1  0  0  0  0  0  0  0  0  0
   56.0223  155.9060   -3.9077 N   0  0  0  0  0  0  0  0  0  0  0  0
   54.3012  158.6448   -2.5822 N   0  0  0  0  0  0  0  0  0  0  0  0
   54.5611  155.8444   -2.0637 O   0  0  0  0  0  0  0  0  0  0  0  0
   55.3399  152.7055   -5.5651 O   0  0  0  0  0  0  0  0  0  0  0  0
   56.6700  159.0798   -4.3567 H   0  0  0  0  0  0  0  0  0  0  0  0
   55.1987  158.3358   -4.9958 H   0  0  0  0  0  0  0  0  0  0  0  0
   56.7423  156.7023   -5.7086 H   0  0  0  0  0  0  0  0  0  0  0  0
   57.7929  156.9167   -4.2712 H   0  0  0  0  0  0  0  0  0  0  0  0
   56.2886  158.1528   -2.1353 H   0  0  0  0  0  0  0  0  0  0  0  0
   58.5007  153.9323   -5.6056 H   0  0  0  0  0  0  0  0  0  0  0  0
   58.7060  153.8729   -7.3687 H   0  0  0  0  0  0  0  0  0  0  0  0
   57.8861  152.5567   -6.5258 H   0  0  0  0  0  0  0  0  0  0  0  0
   53.6283  154.6682   -5.0483 H   0  0  0  0  0  0  0  0  0  0  0  0
   53.8663  154.4495   -6.7720 H   0  0  0  0  0  0  0  0  0  0  0  0
   54.4845  155.9139   -5.9753 H   0  0  0  0  0  0  0  0  0  0  0  0
   56.2401  154.0080   -7.6803 H   0  0  0  0  0  0  0  0  0  0  0  0
   56.8438  155.4082   -6.8479 H   0  0  0  0  0  0  0  0  0  0  0  0
   57.2507  154.2877   -4.1090 H   0  0  0  0  0  0  0  0  0  0  0  0
   55.6618  153.9454   -3.4002 H   0  0  0  0  0  0  0  0  0  0  0  0
   54.2182  159.5961   -2.8819 H   0  0  0  0  0  0  0  0  0  0  0  0
   53.6675  158.2471   -1.9173 H   0  0  0  0  0  0  0  0  0  0  0  0
   54.9760  152.5023   -6.4377 H   0  0  0  0  0  0  0  0  0  0  0  0
  1  4  1  0  0  0  0
  1 10  1  0  0  0  0
  1 12  2  0  0  0  0
  2  3  1  0  0  0  0
  2  4  1  0  0  0  0
  3 10  1  0  0  0  0
  4 11  1  0  0  0  0
  5  7  1  0  0  0  0
  6  9  1  0  0  0  0
  7  9  1  0  0  0  0
  8  9  1  0  0  0  0
  8 10  1  0  0  0  0
  9 13  1  0  0  0  0
  2 14  1  0  0  0  0
  2 15  1  0  0  0  0
  3 16  1  0  0  0  0
  3 17  1  0  0  0  0
  4 18  1  0  0  0  0
  5 19  1  0  0  0  0
  5 20  1  0  0  0  0
  5 21  1  0  0  0  0
  6 22  1  0  0  0  0
  6 23  1  0  0  0  0
  6 24  1  0  0  0  0
  7 25  1  0  0  0  0
  7 26  1  0  0  0  0
  8 27  1  0  0  0  0
  8 28  1  0  0  0  0
 11 29  1  0  0  0  0
 11 30  1  0  0  0  0
 13 31  1  0  0  0  0
M  END
> <FRED Chemgauss4 score>
-5.306820

$$$$
C04963500	P110855107
  -OEChem-05122015083D

 20 21  0     1  0  0  0  0  0999 V2000
   56.0019  157.1897   -6.7586 C   0  0  0  0  0  0  0  0  0  0  0  0
   55.1146  156.6069   -2.8326 C   0  0  0  0  0  0  0  0  0  0  0  0
   55.3989  156.0383   -6.0035 C   0  0  2  0  0  0  0  0  0  0  0  0
   53.7560  156.5390   -3.4720 C   0  0  1  0  0  0  0  0  0  0  0  0
   53.8882  155.8528   -5.9207 C   0  0  2  0  0  0  0  0  0  0  0  0
   53.4232  155.4720   -4.5083 C   0  0  2  0  0  0  0  0  0  0  0  0
   55.8938  157.1981   -5.3263 O   0  0  0  0  0  0  0  0  0  0  0  0
   53.9863  156.0353   -2.1522 O   0  0  0  0  0  0  0  0  0  0  0  0
   53.5032  154.8328   -6.8403 O   0  0  0  0  0  0  0  0  0  0  0  0
   52.0141  155.2515   -4.4913 O   0  0  0  0  0  0  0  0  0  0  0  0
   56.9891  157.0604   -7.1826 H   0  0  0  0  0  0  0  0  0  0  0  0
   55.3487  157.8503   -7.3135 H   0  0  0  0  0  0  0  0  0  0  0  0
   55.8877  155.9314   -3.1746 H   0  0  0  0  0  0  0  0  0  0  0  0
   55.4686  157.5697   -2.4879 H   0  0  0  0  0  0  0  0  0  0  0  0
   55.9569  155.1169   -5.9154 H   0  0  0  0  0  0  0  0  0  0  0  0
   53.1796  157.4468   -3.5802 H   0  0  0  0  0  0  0  0  0  0  0  0
   53.3901  156.7799   -6.2271 H   0  0  0  0  0  0  0  0  0  0  0  0
   53.8988  154.5302   -4.2124 H   0  0  0  0  0  0  0  0  0  0  0  0
   53.9724  154.0283   -6.5711 H   0  0  0  0  0  0  0  0  0  0  0  0
   51.6002  156.1001   -4.7114 H   0  0  0  0  0  0  0  0  0  0  0  0
  1  3  1  0  0  0  0
  1  7  1  0  0  0  0
  2  4  1  0  0  0  0
  2  8  1  0  0  0  0
  3  5  1  0  0  0  0
  3  7  1  0  0  0  0
  4  6  1  0  0  0  0
  4  8  1  0  0  0  0
  5  6  1  0  0  0  0
  5  9  1  0  0  0  0
  6 10  1  0  0  0  0
  1 11  1  0  0  0  0
  1 12  1  0  0  0  0
  2 13  1  0  0  0  0
  2 14  1  0  0  0  0
  3 15  1  0  0  0  0
  4 16  1  0  0  0  0
  5 17  1  0  0  0  0
  6 18  1  0  0  0  0
  9 19  1  0  0  0  0
 10 20  1  0  0  0  0
M  END
> <FRED Chemgauss4 score>
-5.301627

$$$$
C05600631	P89906419
  -OEChem-05122015083D

 24 24  0     1  0  0  0  0  0999 V2000
   56.9793  155.4217   -6.2970 C   0  0  0  0  0  0  0  0  0  0  0  0
   56.1742  156.6920   -6.4743 C   0  0  1  0  0  0  0  0  0  0  0  0
   55.4475  156.8150   -5.1433 C   0  0  1  0  0  0  0  0  0  0  0  0
   55.2149  155.3593   -4.7158 C   0  0  1  0  0  0  0  0  0  0  0  0
   52.9158  155.5150   -3.6991 C   0  0  0  0  0  0  0  0  0  0  0  0
   53.7483  154.9553   -4.8444 C   0  0  1  0  0  0  0  0  0  0  0  0
   56.0536  154.5209   -5.6040 N   0  0  0  0  0  0  0  0  0  0  0  0
   56.9860  157.8150   -6.7463 O   0  0  0  0  0  0  0  0  0  0  0  0
   56.2649  157.4674   -4.1728 O   0  0  0  0  0  0  0  0  0  0  0  0
   53.4436  155.0328   -2.4679 O   0  0  0  0  0  0  0  0  0  0  0  0
   53.2346  155.4747   -6.0691 O   0  0  0  0  0  0  0  0  0  0  0  0
   57.2289  154.9970   -7.2683 H   0  0  0  0  0  0  0  0  0  0  0  0
   57.8818  155.5671   -5.7105 H   0  0  0  0  0  0  0  0  0  0  0  0
   55.4385  156.6041   -7.3197 H   0  0  0  0  0  0  0  0  0  0  0  0
   54.5195  157.3580   -5.2507 H   0  0  0  0  0  0  0  0  0  0  0  0
   55.5213  155.2032   -3.6875 H   0  0  0  0  0  0  0  0  0  0  0  0
   52.9564  156.6090   -3.6765 H   0  0  0  0  0  0  0  0  0  0  0  0
   51.8735  155.1893   -3.7725 H   0  0  0  0  0  0  0  0  0  0  0  0
   53.6551  153.8652   -4.8839 H   0  0  0  0  0  0  0  0  0  0  0  0
   55.4826  154.0257   -6.2793 H   0  0  0  0  0  0  0  0  0  0  0  0
   57.4646  157.6192   -7.5671 H   0  0  0  0  0  0  0  0  0  0  0  0
   55.7495  157.5162   -3.3489 H   0  0  0  0  0  0  0  0  0  0  0  0
   52.8916  155.4074   -1.7634 H   0  0  0  0  0  0  0  0  0  0  0  0
   53.7695  155.0868   -6.7786 H   0  0  0  0  0  0  0  0  0  0  0  0
  1  2  1  0  0  0  0
  1  7  1  0  0  0  0
  2  3  1  0  0  0  0
  2  8  1  0  0  0  0
  3  4  1  0  0  0  0
  3  9  1  0  0  0  0
  4  6  1  0  0  0  0
  4  7  1  0  0  0  0
  5  6  1  0  0  0  0
  5 10  1  0  0  0  0
  6 11  1  0  0  0  0
  1 12  1  0  0  0  0
  1 13  1  0  0  0  0
  2 14  1  0  0  0  0
  3 15  1  0  0  0  0
  4 16  1  0  0  0  0
  5 17  1  0  0  0  0
  5 18  1  0  0  0  0
  6 19  1  0  0  0  0
  7 20  1  0  0  0  0
  8 21  1  0  0  0  0
  9 22  1  0  0  0  0
 10 23  1  0  0  0  0
 11 24  1  0  0  0  0
M  END
> <FRED Chemgauss4 score>
-5.294097

$$$$
C82055066	P127998912
  -OEChem-05122015083D

 18 18  0     0  0  0  0  0  0999 V2000
   53.7717  156.3914   -5.5197 C   0  0  0  0  0  0  0  0  0  0  0  0
   54.3353  154.4127   -6.3095 C   0  0  0  0  0  0  0  0  0  0  0  0
   55.1232  156.1685   -5.4001 C   0  0  0  0  0  0  0  0  0  0  0  0
   55.6358  158.1432   -3.9637 C   0  0  0  0  0  0  0  0  0  0  0  0
   55.4579  157.6109   -2.5535 C   0  0  0  0  0  0  0  0  0  0  0  0
   55.4677  154.9352   -5.8939 N   0  0  0  0  0  0  0  0  0  0  0  0
   53.2806  155.2581   -6.1043 N   0  0  0  0  0  0  0  0  0  0  0  0
   56.0310  157.0374   -4.8658 N   0  0  0  0  0  0  0  0  0  0  0  0
   54.4211  156.6378   -2.5434 O   0  0  0  0  0  0  0  0  0  0  0  0
   53.1321  157.2210   -5.2532 H   0  0  0  0  0  0  0  0  0  0  0  0
   54.2115  153.4397   -6.7624 H   0  0  0  0  0  0  0  0  0  0  0  0
   54.7066  158.5800   -4.3432 H   0  0  0  0  0  0  0  0  0  0  0  0
   56.4242  158.9016   -3.9879 H   0  0  0  0  0  0  0  0  0  0  0  0
   55.1656  158.4230   -1.8805 H   0  0  0  0  0  0  0  0  0  0  0  0
   56.3773  157.1498   -2.1783 H   0  0  0  0  0  0  0  0  0  0  0  0
   52.3141  155.0769   -6.3404 H   0  0  0  0  0  0  0  0  0  0  0  0
   57.0045  156.9594   -5.0665 H   0  0  0  0  0  0  0  0  0  0  0  0
   54.3405  156.3249   -1.6280 H   0  0  0  0  0  0  0  0  0  0  0  0
  1  3  2  0  0  0  0
  1  7  1  0  0  0  0
  2  6  2  0  0  0  0
  2  7  1  0  0  0  0
  3  6  1  0  0  0  0
  3  8  1  0  0  0  0
  4  5  1  0  0  0  0
  4  8  1  0  0  0  0
  5  9  1  0  0  0  0
  1 10  1  0  0  0  0
  2 11  1  0  0  0  0
  4 12  1  0  0  0  0
  4 13  1  0  0  0  0
  5 14  1  0  0  0  0
  5 15  1  0  0  0  0
  7 16  1  0  0  0  0
  8 17  1  0  0  0  0
  9 18  1  0  0  0  0
M  END
> <FRED Chemgauss4 score>
-5.285905

$$$$
C82906542	P129602642
  -OEChem-05122015083D

 37 37  0     1  0  0  0  0  0999 V2000
   56.0810  154.5550   -6.1741 C   0  0  0  0  0  0  0  0  0  0  0  0
   57.5298  154.4358   -6.6597 C   0  0  0  0  0  0  0  0  0  0  0  0
   56.3390  156.9392   -5.9657 C   0  0  0  0  0  0  0  0  0  0  0  0
   57.8139  156.8530   -6.4131 C   0  0  1  0  0  0  0  0  0  0  0  0
   58.7585  156.9034   -5.2008 C   0  0  0  0  0  0  0  0  0  0  0  0
   55.3806  156.4881   -2.5336 C   0  0  0  0  0  0  0  0  0  0  0  0
   59.3327  155.5427   -7.8266 C   0  0  0  0  0  0  0  0  0  0  0  0
   54.5217  155.8201   -4.8408 C   0  0  0  0  0  0  0  0  0  0  0  0
   54.1720  158.2229   -3.9624 C   0  0  0  0  0  0  0  0  0  0  0  0
   54.3109  156.7265   -3.6078 C   0  0  2  0  0  0  0  0  0  0  0  0
   55.9101  155.7102   -5.2848 N   0  0  1  0  0  0  0  0  0  0  0  0
   57.9830  155.6797   -7.2895 N   0  0  1  0  0  0  0  0  0  0  0  0
   53.2182  158.5190   -5.0230 N   0  0  0  0  0  0  0  0  0  0  0  0
   53.0475  156.3515   -3.0294 O   0  0  0  0  0  0  0  0  0  0  0  0
   55.4313  154.6655   -7.0547 H   0  0  0  0  0  0  0  0  0  0  0  0
   55.7808  153.6221   -5.6707 H   0  0  0  0  0  0  0  0  0  0  0  0
   58.1571  154.2081   -5.7899 H   0  0  0  0  0  0  0  0  0  0  0  0
   57.6154  153.5903   -7.3546 H   0  0  0  0  0  0  0  0  0  0  0  0
   56.1943  157.8121   -5.3132 H   0  0  0  0  0  0  0  0  0  0  0  0
   55.7120  157.0925   -6.8536 H   0  0  0  0  0  0  0  0  0  0  0  0
   58.0177  157.7754   -7.0292 H   0  0  0  0  0  0  0  0  0  0  0  0
   58.5943  156.0288   -4.5779 H   0  0  0  0  0  0  0  0  0  0  0  0
   58.5587  157.8019   -4.6240 H   0  0  0  0  0  0  0  0  0  0  0  0
   59.7886  156.9151   -5.5453 H   0  0  0  0  0  0  0  0  0  0  0  0
   55.2129  157.1403   -1.6685 H   0  0  0  0  0  0  0  0  0  0  0  0
   56.3951  156.6670   -2.9019 H   0  0  0  0  0  0  0  0  0  0  0  0
   55.3268  155.4601   -2.1572 H   0  0  0  0  0  0  0  0  0  0  0  0
   59.6493  156.4805   -8.2906 H   0  0  0  0  0  0  0  0  0  0  0  0
   59.3613  154.7504   -8.5794 H   0  0  0  0  0  0  0  0  0  0  0  0
   60.0341  155.2915   -7.0265 H   0  0  0  0  0  0  0  0  0  0  0  0
   54.1289  154.8178   -4.6278 H   0  0  0  0  0  0  0  0  0  0  0  0
   53.9203  156.1974   -5.6772 H   0  0  0  0  0  0  0  0  0  0  0  0
   53.8882  158.7857   -3.0638 H   0  0  0  0  0  0  0  0  0  0  0  0
   55.1543  158.6164   -4.2526 H   0  0  0  0  0  0  0  0  0  0  0  0
   53.3558  159.3463   -5.5650 H   0  0  0  0  0  0  0  0  0  0  0  0
   52.3596  158.0091   -5.0422 H   0  0  0  0  0  0  0  0  0  0  0  0
   52.3876  156.5075   -3.7173 H   0  0  0  0  0  0  0  0  0  0  0  0
  1  2  1  0  0  0  0
  1 11  1  0  0  0  0
  2 12  1  0  0  0  0
  3  4  1  0  0  0  0
  3 11  1  0  0  0  0
  4  5  1  0  0  0  0
  4 12  1  0  0  0  0
  6 10  1  0  0  0  0
  7 12  1  0  0  0  0
  8 10  1  0  0  0  0
  8 11  1  0  0  0  0
  9 10  1  0  0  0  0
  9 13  1  0  0  0  0
 10 14  1  0  0  0  0
  1 15  1  0  0  0  0
  1 16  1  0  0  0  0
  2 17  1  0  0  0  0
  2 18  1  0  0  0  0
  3 19  1  0  0  0  0
  3 20  1  0  0  0  0
  4 21  1  0  0  0  0
  5 22  1  0  0  0  0
  5 23  1  0  0  0  0
  5 24  1  0  0  0  0
  6 25  1  0  0  0  0
  6 26  1  0  0  0  0
  6 27  1  0  0  0  0
  7 28  1  0  0  0  0
  7 29  1  0  0  0  0
  7 30  1  0  0  0  0
  8 31  1  0  0  0  0
  8 32  1  0  0  0  0
  9 33  1  0  0  0  0
  9 34  1  0  0  0  0
 13 35  1  0  0  0  0
 13 36  1  0  0  0  0
 14 37  1  0  0  0  0
M  END
> <FRED Chemgauss4 score>
-5.283620

$$$$
C69942987	P107812252
  -OEChem-05122015083D

 24 24  0     1  0  0  0  0  0999 V2000
   55.9275  157.4366   -4.5716 C   0  0  0  0  0  0  0  0  0  0  0  0
   55.3074  158.4348   -2.5039 C   0  0  0  0  0  0  0  0  0  0  0  0
   56.2114  158.3350   -3.5491 C   0  0  0  0  0  0  0  0  0  0  0  0
   54.7647  156.6761   -4.5184 C   0  0  0  0  0  0  0  0  0  0  0  0
   53.9255  156.8500   -3.4297 C   0  0  0  0  0  0  0  0  0  0  0  0
   57.4459  159.1640   -3.5768 C   0  0  0  0  0  0  0  0  0  0  0  0
   55.0381  154.3104   -5.3746 C   0  0  0  0  0  0  0  0  0  0  0  0
   54.4634  155.7142   -5.6169 C   0  0  1  0  0  0  0  0  0  0  0  0
   54.1676  157.7128   -2.4175 N   0  0  0  0  0  0  0  0  0  0  0  0
   52.7390  156.0767   -3.3711 N   0  0  0  0  0  0  0  0  0  0  0  0
   53.0379  155.5985   -5.8757 N   0  0  0  0  0  0  0  0  0  0  0  0
   56.6131  157.3298   -5.4088 H   0  0  0  0  0  0  0  0  0  0  0  0
   55.4763  159.1186   -1.6777 H   0  0  0  0  0  0  0  0  0  0  0  0
   57.2599  160.1165   -4.0911 H   0  0  0  0  0  0  0  0  0  0  0  0
   57.8052  159.3851   -2.5617 H   0  0  0  0  0  0  0  0  0  0  0  0
   58.2663  158.6472   -4.0947 H   0  0  0  0  0  0  0  0  0  0  0  0
   54.6517  153.8905   -4.4394 H   0  0  0  0  0  0  0  0  0  0  0  0
   54.7735  153.6262   -6.1887 H   0  0  0  0  0  0  0  0  0  0  0  0
   56.1319  154.3270   -5.3110 H   0  0  0  0  0  0  0  0  0  0  0  0
   54.8914  156.0751   -6.5690 H   0  0  0  0  0  0  0  0  0  0  0  0
   52.5220  155.4707   -4.1319 H   0  0  0  0  0  0  0  0  0  0  0  0
   52.1044  156.2266   -2.6176 H   0  0  0  0  0  0  0  0  0  0  0  0
   52.7004  154.7674   -6.3184 H   0  0  0  0  0  0  0  0  0  0  0  0
   52.4714  156.4190   -5.7951 H   0  0  0  0  0  0  0  0  0  0  0  0
  1  3  1  0  0  0  0
  1  4  2  0  0  0  0
  2  3  2  0  0  0  0
  2  9  1  0  0  0  0
  3  6  1  0  0  0  0
  4  5  1  0  0  0  0
  4  8  1  0  0  0  0
  5  9  2  0  0  0  0
  5 10  1  0  0  0  0
  7  8  1  0  0  0  0
  8 11  1  0  0  0  0
  1 12  1  0  0  0  0
  2 13  1  0  0  0  0
  6 14  1  0  0  0  0
  6 15  1  0  0  0  0
  6 16  1  0  0  0  0
  7 17  1  0  0  0  0
  7 18  1  0  0  0  0
  7 19  1  0  0  0  0
  8 20  1  0  0  0  0
 10 21  1  0  0  0  0
 10 22  1  0  0  0  0
 11 23  1  0  0  0  0
 11 24  1  0  0  0  0
M  END
> <FRED Chemgauss4 score>
-5.282987

$$$$
C42029852	P63624183
  -OEChem-05122015083D

 29 29  0     1  0  0  0  0  0999 V2000
   56.7808  154.4031   -6.5914 C   0  0  0  0  0  0  0  0  0  0  0  0
   54.8767  155.3367   -6.1311 C   0  0  0  0  0  0  0  0  0  0  0  0
   58.2342  154.1648   -6.6409 C   0  0  0  0  0  0  0  0  0  0  0  0
   57.9083  157.2503   -6.1209 C   0  0  0  0  0  0  0  0  0  0  0  0
   53.8967  156.4354   -4.0449 C   0  0  0  0  0  0  0  0  0  0  0  0
   56.9081  156.5187   -5.2423 C   0  0  0  0  0  0  0  0  0  0  0  0
   53.1308  155.3192   -3.3422 C   0  0  0  0  0  0  0  0  0  0  0  0
   53.8671  156.3202   -5.5774 C   0  0  2  0  0  0  0  0  0  0  0  0
   55.8377  153.6610   -7.1265 N   0  0  0  0  0  0  0  0  0  0  0  0
   54.6263  154.2550   -6.8336 N   0  0  0  0  0  0  0  0  0  0  0  0
   56.2206  155.4688   -5.9548 N   0  0  0  0  0  0  0  0  0  0  0  0
   52.5350  155.9800   -6.0295 N   0  0  0  0  0  0  0  0  0  0  0  0
   53.2033  155.5300   -1.9379 O   0  0  0  0  0  0  0  0  0  0  0  0
   58.6888  154.6489   -7.5218 H   0  0  0  0  0  0  0  0  0  0  0  0
   58.7502  154.5520   -5.7446 H   0  0  0  0  0  0  0  0  0  0  0  0
   58.4781  153.0887   -6.6892 H   0  0  0  0  0  0  0  0  0  0  0  0
   58.6662  156.5643   -6.5135 H   0  0  0  0  0  0  0  0  0  0  0  0
   58.4183  158.0301   -5.5469 H   0  0  0  0  0  0  0  0  0  0  0  0
   57.4124  157.7238   -6.9748 H   0  0  0  0  0  0  0  0  0  0  0  0
   54.9390  156.4144   -3.6977 H   0  0  0  0  0  0  0  0  0  0  0  0
   53.5117  157.4080   -3.7107 H   0  0  0  0  0  0  0  0  0  0  0  0
   56.1542  157.2130   -4.8544 H   0  0  0  0  0  0  0  0  0  0  0  0
   57.4099  156.0678   -4.3787 H   0  0  0  0  0  0  0  0  0  0  0  0
   52.0760  155.3138   -3.6322 H   0  0  0  0  0  0  0  0  0  0  0  0
   53.5697  154.3425   -3.5693 H   0  0  0  0  0  0  0  0  0  0  0  0
   54.0607  157.3157   -5.9963 H   0  0  0  0  0  0  0  0  0  0  0  0
   52.4222  155.5893   -6.9465 H   0  0  0  0  0  0  0  0  0  0  0  0
   51.7477  156.3243   -5.5117 H   0  0  0  0  0  0  0  0  0  0  0  0
   52.7086  154.8064   -1.5207 H   0  0  0  0  0  0  0  0  0  0  0  0
  1  3  1  0  0  0  0
  1  9  2  0  0  0  0
  1 11  1  0  0  0  0
  2  8  1  0  0  0  0
  2 10  2  0  0  0  0
  2 11  1  0  0  0  0
  4  6  1  0  0  0  0
  5  7  1  0  0  0  0
  5  8  1  0  0  0  0
  6 11  1  0  0  0  0
  7 13  1  0  0  0  0
  8 12  1  0  0  0  0
  9 10  1  0  0  0  0
  3 14  1  0  0  0  0
  3 15  1  0  0  0  0
  3 16  1  0  0  0  0
  4 17  1  0  0  0  0
  4 18  1  0  0  0  0
  4 19  1  0  0  0  0
  5 20  1  0  0  0  0
  5 21  1  0  0  0  0
  6 22  1  0  0  0  0
  6 23  1  0  0  0  0
  7 24  1  0  0  0  0
  7 25  1  0  0  0  0
  8 26  1  0  0  0  0
 12 27  1  0  0  0  0
 12 28  1  0  0  0  0
 13 29  1  0  0  0  0
M  END
> <FRED Chemgauss4 score>
-5.278279

$$$$
C44686306	P67425244
  -OEChem-05122015083D

 41 43  0     1  0  0  0  0  0999 V2000
   56.7229  155.6198   -6.0169 C   0  0  0  0  0  0  0  0  0  0  0  0
   57.9986  156.1837   -6.0273 C   0  0  0  0  0  0  0  0  0  0  0  0
   57.2536  157.8972   -4.4956 C   0  0  0  0  0  0  0  0  0  0  0  0
   55.7125  156.1946   -5.2459 C   0  0  0  0  0  0  0  0  0  0  0  0
   58.2640  157.3225   -5.2666 C   0  0  0  0  0  0  0  0  0  0  0  0
   55.9778  157.3333   -4.4853 C   0  0  0  0  0  0  0  0  0  0  0  0
   52.4347  163.2055   -8.5299 C   0  0  0  0  0  0  0  0  0  0  0  0
   52.0156  161.9214   -9.1850 C   0  0  0  0  0  0  0  0  0  0  0  0
   54.5160  160.8824   -5.0936 C   0  0  0  0  0  0  0  0  0  0  0  0
   53.6853  161.9498   -5.7965 C   0  0  0  0  0  0  0  0  0  0  0  0
   52.9011  159.9312   -6.6279 C   0  0  0  0  0  0  0  0  0  0  0  0
   52.1703  161.9857   -7.6901 C   0  0  0  0  0  0  0  0  0  0  0  0
   54.0363  159.5532   -5.6816 C   0  0  2  0  0  0  0  0  0  0  0  0
   54.3575  155.5660   -5.2568 C   0  0  0  0  0  0  0  0  0  0  0  0
   53.2663  161.2890   -7.0329 N   0  0  1  0  0  0  0  0  0  0  0  0
   59.5544  157.8914   -5.2764 N   0  0  0  0  0  0  0  0  0  0  0  0
   53.6178  158.6159   -4.6756 N   0  0  0  0  0  0  0  0  0  0  0  0
   54.1043  157.0486   -2.6912 O   0  0  0  0  0  0  0  0  0  0  0  0
   55.3217  159.2427   -2.8583 O   0  0  0  0  0  0  0  0  0  0  0  0
   54.7217  158.0860   -3.4952 S   0  0  0  0  0  0  0  0  0  0  0  0
   56.5270  154.7328   -6.6136 H   0  0  0  0  0  0  0  0  0  0  0  0
   58.7781  155.7272   -6.6320 H   0  0  0  0  0  0  0  0  0  0  0  0
   57.4619  158.7853   -3.9030 H   0  0  0  0  0  0  0  0  0  0  0  0
   53.4587  163.5299   -8.6694 H   0  0  0  0  0  0  0  0  0  0  0  0
   51.7114  164.0109   -8.4911 H   0  0  0  0  0  0  0  0  0  0  0  0
   51.0109  161.8643   -9.5860 H   0  0  0  0  0  0  0  0  0  0  0  0
   52.7590  161.3862   -9.7633 H   0  0  0  0  0  0  0  0  0  0  0  0
   55.5784  161.0191   -5.3296 H   0  0  0  0  0  0  0  0  0  0  0  0
   54.4063  160.9463   -4.0057 H   0  0  0  0  0  0  0  0  0  0  0  0
   52.8236  162.2206   -5.1728 H   0  0  0  0  0  0  0  0  0  0  0  0
   54.2706  162.8539   -5.9907 H   0  0  0  0  0  0  0  0  0  0  0  0
   52.8541  159.2509   -7.4849 H   0  0  0  0  0  0  0  0  0  0  0  0
   51.9279  159.9090   -6.1194 H   0  0  0  0  0  0  0  0  0  0  0  0
   51.2530  161.9905   -7.1100 H   0  0  0  0  0  0  0  0  0  0  0  0
   54.8791  159.1009   -6.2708 H   0  0  0  0  0  0  0  0  0  0  0  0
   54.2822  154.8126   -4.4643 H   0  0  0  0  0  0  0  0  0  0  0  0
   53.5718  156.3157   -5.1026 H   0  0  0  0  0  0  0  0  0  0  0  0
   54.1529  155.0824   -6.2200 H   0  0  0  0  0  0  0  0  0  0  0  0
   60.2818  157.4421   -5.7951 H   0  0  0  0  0  0  0  0  0  0  0  0
   59.7445  158.6793   -4.6907 H   0  0  0  0  0  0  0  0  0  0  0  0
   52.6163  158.6130   -4.4618 H   0  0  0  0  0  0  0  0  0  0  0  0
  1  2  2  0  0  0  0
  1  4  1  0  0  0  0
  2  5  1  0  0  0  0
  3  5  2  0  0  0  0
  3  6  1  0  0  0  0
  4  6  2  0  0  0  0
  4 14  1  0  0  0  0
  5 16  1  0  0  0  0
  6 20  1  0  0  0  0
  7  8  1  0  0  0  0
  7 12  1  0  0  0  0
  8 12  1  0  0  0  0
  9 10  1  0  0  0  0
  9 13  1  0  0  0  0
 10 15  1  0  0  0  0
 11 13  1  0  0  0  0
 11 15  1  0  0  0  0
 12 15  1  0  0  0  0
 13 17  1  0  0  0  0
 17 20  1  0  0  0  0
 18 20  2  0  0  0  0
 19 20  2  0  0  0  0
  1 21  1  0  0  0  0
  2 22  1  0  0  0  0
  3 23  1  0  0  0  0
  7 24  1  0  0  0  0
  7 25  1  0  0  0  0
  8 26  1  0  0  0  0
  8 27  1  0  0  0  0
  9 28  1  0  0  0  0
  9 29  1  0  0  0  0
 10 30  1  0  0  0  0
 10 31  1  0  0  0  0
 11 32  1  0  0  0  0
 11 33  1  0  0  0  0
 12 34  1  0  0  0  0
 13 35  1  0  0  0  0
 14 36  1  0  0  0  0
 14 37  1  0  0  0  0
 14 38  1  0  0  0  0
 16 39  1  0  0  0  0
 16 40  1  0  0  0  0
 17 41  1  0  0  0  0
M  END
> <FRED Chemgauss4 score>
-5.276557

$$$$
C97588393	P154677190
  -OEChem-05122015083D

 47 49  0     1  0  0  0  0  0999 V2000
   54.7729  158.4886   -2.3021 C   0  0  0  0  0  0  0  0  0  0  0  0
   56.9464  158.7495   -2.0948 C   0  0  0  0  0  0  0  0  0  0  0  0
   56.0094  158.0188   -2.7839 C   0  0  0  0  0  0  0  0  0  0  0  0
   58.2282  158.0220   -7.7027 C   0  0  0  0  0  0  0  0  0  0  0  0
   59.1739  157.5822   -6.5856 C   0  0  0  0  0  0  0  0  0  0  0  0
   54.8818  153.7202   -7.1985 C   0  0  0  0  0  0  0  0  0  0  0  0
   56.2221  153.0310   -6.9615 C   0  0  0  0  0  0  0  0  0  0  0  0
   57.0429  157.0615   -7.6588 C   0  0  0  0  0  0  0  0  0  0  0  0
   58.5144  156.3772   -5.9203 C   0  0  0  0  0  0  0  0  0  0  0  0
   55.1634  155.2063   -7.0320 C   0  0  0  0  0  0  0  0  0  0  0  0
   57.2040  154.1579   -6.6766 C   0  0  0  0  0  0  0  0  0  0  0  0
   57.0187  156.5206   -6.2245 C   0  0  0  0  0  0  0  0  0  0  0  0
   56.7937  160.5426   -0.3513 C   0  0  0  0  0  0  0  0  0  0  0  0
   56.2537  156.9502   -3.8223 C   0  0  0  0  0  0  0  0  0  0  0  0
   56.3340  157.4961   -5.2609 C   0  0  2  0  0  0  0  0  0  0  0  0
   54.9087  159.4436   -1.3782 N   0  0  0  0  0  0  0  0  0  0  0  0
   56.2416  159.5798   -1.2739 N   0  0  0  0  0  0  0  0  0  0  0  0
   56.3399  155.2210   -6.1614 N   0  0  0  0  0  0  0  0  0  0  0  0
   54.5199  158.9667   -5.1461 N   0  0  0  0  0  0  0  0  0  0  0  0
   54.9799  157.7648   -5.7566 N   0  0  0  0  0  0  0  0  0  0  0  0
   53.7773  158.1758   -2.5835 H   0  0  0  0  0  0  0  0  0  0  0  0
   58.0278  158.7483   -2.1172 H   0  0  0  0  0  0  0  0  0  0  0  0
   57.9021  159.0596   -7.5729 H   0  0  0  0  0  0  0  0  0  0  0  0
   58.7390  157.9596   -8.6710 H   0  0  0  0  0  0  0  0  0  0  0  0
   60.1471  157.3044   -7.0074 H   0  0  0  0  0  0  0  0  0  0  0  0
   59.3503  158.3864   -5.8632 H   0  0  0  0  0  0  0  0  0  0  0  0
   54.4810  153.4969   -8.1925 H   0  0  0  0  0  0  0  0  0  0  0  0
   54.1514  153.3763   -6.4566 H   0  0  0  0  0  0  0  0  0  0  0  0
   56.1446  152.3551   -6.1018 H   0  0  0  0  0  0  0  0  0  0  0  0
   56.5323  152.4382   -7.8281 H   0  0  0  0  0  0  0  0  0  0  0  0
   56.1190  157.6178   -7.8732 H   0  0  0  0  0  0  0  0  0  0  0  0
   57.1262  156.2740   -8.4189 H   0  0  0  0  0  0  0  0  0  0  0  0
   58.9414  155.4299   -6.2744 H   0  0  0  0  0  0  0  0  0  0  0  0
   58.6908  156.4222   -4.8358 H   0  0  0  0  0  0  0  0  0  0  0  0
   55.3737  155.6565   -8.0120 H   0  0  0  0  0  0  0  0  0  0  0  0
   54.3125  155.7318   -6.5843 H   0  0  0  0  0  0  0  0  0  0  0  0
   57.9659  153.8565   -5.9491 H   0  0  0  0  0  0  0  0  0  0  0  0
   57.7092  154.4547   -7.6061 H   0  0  0  0  0  0  0  0  0  0  0  0
   56.9068  161.4917   -0.8818 H   0  0  0  0  0  0  0  0  0  0  0  0
   56.1183  160.6591    0.5009 H   0  0  0  0  0  0  0  0  0  0  0  0
   57.7633  160.1854    0.0065 H   0  0  0  0  0  0  0  0  0  0  0  0
   57.1704  156.3971   -3.5774 H   0  0  0  0  0  0  0  0  0  0  0  0
   55.4381  156.2182   -3.7411 H   0  0  0  0  0  0  0  0  0  0  0  0
   56.8862  158.4441   -5.2715 H   0  0  0  0  0  0  0  0  0  0  0  0
   55.2705  159.3785   -4.5923 H   0  0  0  0  0  0  0  0  0  0  0  0
   54.3136  159.6421   -5.8810 H   0  0  0  0  0  0  0  0  0  0  0  0
   54.3728  156.9940   -5.4932 H   0  0  0  0  0  0  0  0  0  0  0  0
  1  3  1  0  0  0  0
  1 16  2  0  0  0  0
  2  3  2  0  0  0  0
  2 17  1  0  0  0  0
  3 14  1  0  0  0  0
  4  5  1  0  0  0  0
  4  8  1  0  0  0  0
  5  9  1  0  0  0  0
  6  7  1  0  0  0  0
  6 10  1  0  0  0  0
  7 11  1  0  0  0  0
  8 12  1  0  0  0  0
  9 12  1  0  0  0  0
 10 18  1  0  0  0  0
 11 18  1  0  0  0  0
 12 15  1  0  0  0  0
 12 18  1  0  0  0  0
 13 17  1  0  0  0  0
 14 15  1  0  0  0  0
 15 20  1  0  0  0  0
 16 17  1  0  0  0  0
 19 20  1  0  0  0  0
  1 21  1  0  0  0  0
  2 22  1  0  0  0  0
  4 23  1  0  0  0  0
  4 24  1  0  0  0  0
  5 25  1  0  0  0  0
  5 26  1  0  0  0  0
  6 27  1  0  0  0  0
  6 28  1  0  0  0  0
  7 29  1  0  0  0  0
  7 30  1  0  0  0  0
  8 31  1  0  0  0  0
  8 32  1  0  0  0  0
  9 33  1  0  0  0  0
  9 34  1  0  0  0  0
 10 35  1  0  0  0  0
 10 36  1  0  0  0  0
 11 37  1  0  0  0  0
 11 38  1  0  0  0  0
 13 39  1  0  0  0  0
 13 40  1  0  0  0  0
 13 41  1  0  0  0  0
 14 42  1  0  0  0  0
 14 43  1  0  0  0  0
 15 44  1  0  0  0  0
 19 45  1  0  0  0  0
 19 46  1  0  0  0  0
 20 47  1  0  0  0  0
M  END
> <FRED Chemgauss4 score>
-5.274404

$$$$
C85353246	P133560523
  -OEChem-05122015083D

 24 25  0     1  0  0  0  0  0999 V2000
   54.8097  156.0598   -5.0287 C   0  0  0  0  0  0  0  0  0  0  0  0
   54.5679  154.4039   -6.2763 C   0  0  0  0  0  0  0  0  0  0  0  0
   55.3681  158.5623   -4.5670 C   0  0  0  0  0  0  0  0  0  0  0  0
   55.6683  158.4801   -2.2556 C   0  0  0  0  0  0  0  0  0  0  0  0
   55.4811  157.0948   -4.1547 C   0  0  1  0  0  0  0  0  0  0  0  0
   55.0308  157.1675   -2.6918 C   0  0  2  0  0  0  0  0  0  0  0  0
   54.7109  153.2069   -7.1206 C   0  0  0  0  0  0  0  0  0  0  0  0
   55.5092  155.0548   -5.6330 N   0  0  0  0  0  0  0  0  0  0  0  0
   53.4948  156.0716   -5.2575 N   0  0  0  0  0  0  0  0  0  0  0  0
   53.3664  155.0026   -6.0580 N   0  0  0  0  0  0  0  0  0  0  0  0
   53.5770  157.2665   -2.5421 N   0  0  0  0  0  0  0  0  0  0  0  0
   55.6941  159.3409   -3.4046 O   0  0  0  0  0  0  0  0  0  0  0  0
   56.1089  158.8037   -5.3336 H   0  0  0  0  0  0  0  0  0  0  0  0
   54.3800  158.8492   -4.9307 H   0  0  0  0  0  0  0  0  0  0  0  0
   55.0829  158.9890   -1.4788 H   0  0  0  0  0  0  0  0  0  0  0  0
   56.6877  158.3441   -1.8760 H   0  0  0  0  0  0  0  0  0  0  0  0
   56.6040  156.7975   -4.1680 H   0  0  0  0  0  0  0  0  0  0  0  0
   55.4136  156.3699   -2.1409 H   0  0  0  0  0  0  0  0  0  0  0  0
   54.6012  152.2820   -6.5281 H   0  0  0  0  0  0  0  0  0  0  0  0
   53.9588  153.1735   -7.9295 H   0  0  0  0  0  0  0  0  0  0  0  0
   55.6946  153.1644   -7.6225 H   0  0  0  0  0  0  0  0  0  0  0  0
   52.4483  154.7521   -6.4060 H   0  0  0  0  0  0  0  0  0  0  0  0
   53.2110  157.7440   -1.7424 H   0  0  0  0  0  0  0  0  0  0  0  0
   52.9975  156.6900   -3.1198 H   0  0  0  0  0  0  0  0  0  0  0  0
  1  5  1  0  0  0  0
  1  8  1  0  0  0  0
  1  9  2  0  0  0  0
  2  7  1  0  0  0  0
  2  8  2  0  0  0  0
  2 10  1  0  0  0  0
  3  5  1  0  0  0  0
  3 12  1  0  0  0  0
  4  6  1  0  0  0  0
  4 12  1  0  0  0  0
  5  6  1  0  0  0  0
  6 11  1  0  0  0  0
  9 10  1  0  0  0  0
  3 13  1  0  0  0  0
  3 14  1  0  0  0  0
  4 15  1  0  0  0  0
  4 16  1  0  0  0  0
  5 17  1  0  0  0  0
  6 18  1  0  0  0  0
  7 19  1  0  0  0  0
  7 20  1  0  0  0  0
  7 21  1  0  0  0  0
 10 22  1  0  0  0  0
 11 23  1  0  0  0  0
 11 24  1  0  0  0  0
M  END
> <FRED Chemgauss4 score>
-5.272995

$$$$
C87518688	P136898546
  -OEChem-05122015083D

 35 36  0     1  0  0  0  0  0999 V2000
   58.8992  161.0778   -3.7479 C   0  0  0  0  0  0  0  0  0  0  0  0
   57.6353  159.7621   -2.5618 C   0  0  0  0  0  0  0  0  0  0  0  0
   57.0701  157.7515   -4.5923 C   0  0  0  0  0  0  0  0  0  0  0  0
   56.8666  156.3335   -5.1395 C   0  0  0  0  0  0  0  0  0  0  0  0
   55.0614  156.7377   -3.6469 C   0  0  2  0  0  0  0  0  0  0  0  0
   55.8318  158.0652   -3.7371 C   0  0  1  0  0  0  0  0  0  0  0  0
   55.3611  156.0456   -4.9990 C   0  0  0  0  0  0  0  0  0  0  0  0
   55.0861  154.5383   -4.9500 C   0  0  0  0  0  0  0  0  0  0  0  0
   54.5892  156.6524   -6.1871 C   0  0  0  0  0  0  0  0  0  0  0  0
   60.7166  162.3335   -4.9340 C   0  0  0  0  0  0  0  0  0  0  0  0
   59.2617  161.8487   -4.9496 C   0  0  0  0  0  0  0  0  0  0  0  0
   57.7215  160.3498   -3.7350 N   0  0  0  0  0  0  0  0  0  0  0  0
   59.7071  161.0878   -2.6878 N   0  0  0  0  0  0  0  0  0  0  0  0
   53.6443  156.9228   -3.3627 N   0  0  0  0  0  0  0  0  0  0  0  0
   58.9703  160.1146   -1.5429 S   0  0  0  0  0  0  0  0  0  0  0  0
   56.2830  158.7243   -2.1018 S   0  0  0  0  0  0  0  0  0  0  0  0
   58.0191  157.8115   -4.0482 H   0  0  0  0  0  0  0  0  0  0  0  0
   57.1317  158.4654   -5.4226 H   0  0  0  0  0  0  0  0  0  0  0  0
   57.2260  156.2422   -6.1700 H   0  0  0  0  0  0  0  0  0  0  0  0
   57.4498  155.6324   -4.5285 H   0  0  0  0  0  0  0  0  0  0  0  0
   55.4857  156.1201   -2.8419 H   0  0  0  0  0  0  0  0  0  0  0  0
   55.2336  158.8339   -4.2411 H   0  0  0  0  0  0  0  0  0  0  0  0
   54.0175  154.3669   -4.8508 H   0  0  0  0  0  0  0  0  0  0  0  0
   55.6023  154.1022   -4.0988 H   0  0  0  0  0  0  0  0  0  0  0  0
   55.4430  154.0739   -5.8656 H   0  0  0  0  0  0  0  0  0  0  0  0
   53.5327  156.4394   -6.0701 H   0  0  0  0  0  0  0  0  0  0  0  0
   54.9530  156.2124   -7.1086 H   0  0  0  0  0  0  0  0  0  0  0  0
   54.7485  157.7246   -6.2035 H   0  0  0  0  0  0  0  0  0  0  0  0
   60.9170  162.9280   -4.0361 H   0  0  0  0  0  0  0  0  0  0  0  0
   60.9398  162.9536   -5.8079 H   0  0  0  0  0  0  0  0  0  0  0  0
   61.4077  161.4838   -4.9355 H   0  0  0  0  0  0  0  0  0  0  0  0
   59.1046  161.2541   -5.8717 H   0  0  0  0  0  0  0  0  0  0  0  0
   58.6036  162.7318   -5.0749 H   0  0  0  0  0  0  0  0  0  0  0  0
   53.3804  157.6481   -2.7293 H   0  0  0  0  0  0  0  0  0  0  0  0
   53.0090  156.2044   -3.6412 H   0  0  0  0  0  0  0  0  0  0  0  0
  1 11  1  0  0  0  0
  1 12  1  0  0  0  0
  1 13  2  0  0  0  0
  2 12  2  0  0  0  0
  2 15  1  0  0  0  0
  2 16  1  0  0  0  0
  3  4  1  0  0  0  0
  3  6  1  0  0  0  0
  4  7  1  0  0  0  0
  5  6  1  0  0  0  0
  5  7  1  0  0  0  0
  5 14  1  0  0  0  0
  6 16  1  0  0  0  0
  7  8  1  0  0  0  0
  7  9  1  0  0  0  0
 10 11  1  0  0  0  0
 13 15  1  0  0  0  0
  3 17  1  0  0  0  0
  3 18  1  0  0  0  0
  4 19  1  0  0  0  0
  4 20  1  0  0  0  0
  5 21  1  0  0  0  0
  6 22  1  0  0  0  0
  8 23  1  0  0  0  0
  8 24  1  0  0  0  0
  8 25  1  0  0  0  0
  9 26  1  0  0  0  0
  9 27  1  0  0  0  0
  9 28  1  0  0  0  0
 10 29  1  0  0  0  0
 10 30  1  0  0  0  0
 10 31  1  0  0  0  0
 11 32  1  0  0  0  0
 11 33  1  0  0  0  0
 14 34  1  0  0  0  0
 14 35  1  0  0  0  0
M  END
> <FRED Chemgauss4 score>
-5.267208

$$$$
C83295839	P130212271
  -OEChem-05122015083D

 16 15  0     0  0  0  0  0  0999 V2000
   54.2043  155.4280   -3.7997 C   0  0  0  0  0  0  0  0  0  0  0  0
   56.0707  157.2424   -5.5650 C   0  0  0  0  0  0  0  0  0  0  0  0
   56.1847  156.8307   -4.1098 C   0  0  0  0  0  0  0  0  0  0  0  0
   52.0783  155.1307   -4.8952 N   0  0  0  0  0  0  0  0  0  0  0  0
   53.4562  155.2598   -4.9485 N   0  0  0  0  0  0  0  0  0  0  0  0
   56.6730  158.5199   -5.7345 O   0  0  0  0  0  0  0  0  0  0  0  0
   55.5573  155.5480   -3.9344 O   0  0  0  0  0  0  0  0  0  0  0  0
   53.6534  155.5071   -2.2213 S   0  0  0  0  0  0  0  0  0  0  0  0
   55.0233  157.3159   -5.8732 H   0  0  0  0  0  0  0  0  0  0  0  0
   56.5949  156.5286   -6.2070 H   0  0  0  0  0  0  0  0  0  0  0  0
   55.6806  157.5491   -3.4557 H   0  0  0  0  0  0  0  0  0  0  0  0
   57.2353  156.7411   -3.8185 H   0  0  0  0  0  0  0  0  0  0  0  0
   51.7091  155.5648   -5.7402 H   0  0  0  0  0  0  0  0  0  0  0  0
   51.7584  155.7080   -4.1187 H   0  0  0  0  0  0  0  0  0  0  0  0
   53.8769  155.2219   -5.8703 H   0  0  0  0  0  0  0  0  0  0  0  0
   56.5813  158.7492   -6.6730 H   0  0  0  0  0  0  0  0  0  0  0  0
  1  5  1  0  0  0  0
  1  7  1  0  0  0  0
  1  8  2  0  0  0  0
  2  3  1  0  0  0  0
  2  6  1  0  0  0  0
  3  7  1  0  0  0  0
  4  5  1  0  0  0  0
  2  9  1  0  0  0  0
  2 10  1  0  0  0  0
  3 11  1  0  0  0  0
  3 12  1  0  0  0  0
  4 13  1  0  0  0  0
  4 14  1  0  0  0  0
  5 15  1  0  0  0  0
  6 16  1  0  0  0  0
M  END
> <FRED Chemgauss4 score>
-5.264732

$$$$
C05975518	P111279700
  -OEChem-05122015083D

 23 23  0     1  0  0  0  0  0999 V2000
   54.2209  156.5432   -6.3137 C   0  0  2  0  0  0  0  0  0  0  0  0
   53.8091  156.2449   -4.8609 C   0  0  1  0  0  0  0  0  0  0  0  0
   55.4908  155.7780   -6.6519 C   0  0  1  0  0  0  0  0  0  0  0  0
   55.0184  155.9164   -3.9583 C   0  0  2  0  0  0  0  0  0  0  0  0
   56.6315  156.1768   -5.7053 C   0  0  1  0  0  0  0  0  0  0  0  0
   54.8040  156.2705   -2.4925 C   0  0  0  0  0  0  0  0  0  0  0  0
   56.1807  156.6096   -4.4153 O   0  0  0  0  0  0  0  0  0  0  0  0
   54.4612  157.9389   -6.4832 O   0  0  0  0  0  0  0  0  0  0  0  0
   53.0445  157.3302   -4.3449 O   0  0  0  0  0  0  0  0  0  0  0  0
   57.6018  155.1399   -5.6168 O   0  0  0  0  0  0  0  0  0  0  0  0
   53.6855  155.5470   -2.0119 O   0  0  0  0  0  0  0  0  0  0  0  0
   55.2347  154.4460   -6.5146 F   0  0  0  0  0  0  0  0  0  0  0  0
   53.4220  156.2598   -6.9960 H   0  0  0  0  0  0  0  0  0  0  0  0
   53.1015  155.3624   -4.8762 H   0  0  0  0  0  0  0  0  0  0  0  0
   55.7708  155.9563   -7.6883 H   0  0  0  0  0  0  0  0  0  0  0  0
   55.2175  154.8298   -4.0157 H   0  0  0  0  0  0  0  0  0  0  0  0
   57.1661  157.0506   -6.1672 H   0  0  0  0  0  0  0  0  0  0  0  0
   54.6117  157.3391   -2.3911 H   0  0  0  0  0  0  0  0  0  0  0  0
   55.6851  155.9993   -1.9102 H   0  0  0  0  0  0  0  0  0  0  0  0
   54.7152  158.0663   -7.4108 H   0  0  0  0  0  0  0  0  0  0  0  0
   52.2664  157.4092   -4.9157 H   0  0  0  0  0  0  0  0  0  0  0  0
   58.2874  155.4555   -5.0083 H   0  0  0  0  0  0  0  0  0  0  0  0
   53.5693  155.7892   -1.0774 H   0  0  0  0  0  0  0  0  0  0  0  0
  1  2  1  0  0  0  0
  1  3  1  0  0  0  0
  1  8  1  0  0  0  0
  2  4  1  0  0  0  0
  2  9  1  0  0  0  0
  3  5  1  0  0  0  0
  3 12  1  0  0  0  0
  4  6  1  0  0  0  0
  4  7  1  0  0  0  0
  5  7  1  0  0  0  0
  5 10  1  0  0  0  0
  6 11  1  0  0  0  0
  1 13  1  0  0  0  0
  2 14  1  0  0  0  0
  3 15  1  0  0  0  0
  4 16  1  0  0  0  0
  5 17  1  0  0  0  0
  6 18  1  0  0  0  0
  6 19  1  0  0  0  0
  8 20  1  0  0  0  0
  9 21  1  0  0  0  0
 10 22  1  0  0  0  0
 11 23  1  0  0  0  0
M  END
> <FRED Chemgauss4 score>
-5.260477

$$$$
C02558640	P06221219
  -OEChem-05122015083D

 23 23  0     1  0  0  0  0  0999 V2000
   55.1634  156.0410   -2.8817 C   0  0  0  0  0  0  0  0  0  0  0  0
   53.6658  155.9610   -3.1418 C   0  0  1  0  0  0  0  0  0  0  0  0
   53.3917  155.4478   -4.5550 C   0  0  2  0  0  0  0  0  0  0  0  0
   54.2178  156.2160   -5.5864 C   0  0  1  0  0  0  0  0  0  0  0  0
   55.6874  156.3092   -5.1725 C   0  0  2  0  0  0  0  0  0  0  0  0
   56.1218  158.5260   -5.8202 C   0  0  0  0  0  0  0  0  0  0  0  0
   55.8019  156.8549   -3.8595 O   0  0  0  0  0  0  0  0  0  0  0  0
   53.0900  155.0845   -2.1798 O   0  0  0  0  0  0  0  0  0  0  0  0
   52.0099  155.6290   -4.8681 O   0  0  0  0  0  0  0  0  0  0  0  0
   54.1202  155.5354   -6.8375 O   0  0  0  0  0  0  0  0  0  0  0  0
   56.3528  157.1559   -6.1087 O   0  0  0  0  0  0  0  0  0  0  0  0
   55.3471  156.4828   -1.8961 H   0  0  0  0  0  0  0  0  0  0  0  0
   55.6249  155.0454   -2.8623 H   0  0  0  0  0  0  0  0  0  0  0  0
   53.2111  156.9495   -3.0091 H   0  0  0  0  0  0  0  0  0  0  0  0
   53.5878  154.3715   -4.6240 H   0  0  0  0  0  0  0  0  0  0  0  0
   53.7938  157.2174   -5.7344 H   0  0  0  0  0  0  0  0  0  0  0  0
   56.1704  155.3250   -5.2170 H   0  0  0  0  0  0  0  0  0  0  0  0
   56.6433  159.1465   -6.5531 H   0  0  0  0  0  0  0  0  0  0  0  0
   56.4812  158.7529   -4.8133 H   0  0  0  0  0  0  0  0  0  0  0  0
   55.0489  158.7250   -5.8754 H   0  0  0  0  0  0  0  0  0  0  0  0
   53.2774  155.4667   -1.3078 H   0  0  0  0  0  0  0  0  0  0  0  0
   51.8378  156.5805   -4.8050 H   0  0  0  0  0  0  0  0  0  0  0  0
   54.4727  154.6443   -6.6929 H   0  0  0  0  0  0  0  0  0  0  0  0
  1  2  1  0  0  0  0
  1  7  1  0  0  0  0
  2  3  1  0  0  0  0
  2  8  1  0  0  0  0
  3  4  1  0  0  0  0
  3  9  1  0  0  0  0
  4  5  1  0  0  0  0
  4 10  1  0  0  0  0
  5  7  1  0  0  0  0
  5 11  1  0  0  0  0
  6 11  1  0  0  0  0
  1 12  1  0  0  0  0
  1 13  1  0  0  0  0
  2 14  1  0  0  0  0
  3 15  1  0  0  0  0
  4 16  1  0  0  0  0
  5 17  1  0  0  0  0
  6 18  1  0  0  0  0
  6 19  1  0  0  0  0
  6 20  1  0  0  0  0
  8 21  1  0  0  0  0
  9 22  1  0  0  0  0
 10 23  1  0  0  0  0
M  END
> <FRED Chemgauss4 score>
-5.258833

$$$$
C87339114	P136639590
  -OEChem-05122015083D

 24 24  0     0  0  0  0  0  0999 V2000
   58.5112  159.3395   -3.8543 C   0  0  0  0  0  0  0  0  0  0  0  0
   57.6465  159.5119   -0.4603 C   0  0  0  0  0  0  0  0  0  0  0  0
   56.3999  159.2263   -0.9653 C   0  0  0  0  0  0  0  0  0  0  0  0
   57.9086  159.3532   -2.5666 C   0  0  0  0  0  0  0  0  0  0  0  0
   55.1536  157.3711   -3.3169 C   0  0  0  0  0  0  0  0  0  0  0  0
   55.5404  158.8343   -3.2936 C   0  0  0  0  0  0  0  0  0  0  0  0
   55.7759  155.2365   -4.4319 C   0  0  0  0  0  0  0  0  0  0  0  0
   54.7769  155.0056   -5.5509 C   0  0  0  0  0  0  0  0  0  0  0  0
   59.0031  159.3284   -4.9053 N   0  0  0  0  0  0  0  0  0  0  0  0
   58.5812  159.5898   -1.4622 N   0  0  0  0  0  0  0  0  0  0  0  0
   56.5836  159.1280   -2.3158 N   0  0  0  0  0  0  0  0  0  0  0  0
   55.9365  156.6551   -4.2107 N   0  0  0  0  0  0  0  0  0  0  0  0
   54.2554  156.8973   -2.6263 O   0  0  0  0  0  0  0  0  0  0  0  0
   53.5147  155.5419   -5.1752 O   0  0  0  0  0  0  0  0  0  0  0  0
   57.9185  159.6654    0.5738 H   0  0  0  0  0  0  0  0  0  0  0  0
   55.4350  159.0901   -0.4973 H   0  0  0  0  0  0  0  0  0  0  0  0
   54.6641  159.4456   -3.0505 H   0  0  0  0  0  0  0  0  0  0  0  0
   55.9058  159.1383   -4.2811 H   0  0  0  0  0  0  0  0  0  0  0  0
   55.4368  154.7799   -3.4966 H   0  0  0  0  0  0  0  0  0  0  0  0
   56.7516  154.8205   -4.7005 H   0  0  0  0  0  0  0  0  0  0  0  0
   54.6499  153.9325   -5.7243 H   0  0  0  0  0  0  0  0  0  0  0  0
   55.0988  155.4821   -6.4826 H   0  0  0  0  0  0  0  0  0  0  0  0
   56.6339  157.1443   -4.7640 H   0  0  0  0  0  0  0  0  0  0  0  0
   52.9085  155.3739   -5.9144 H   0  0  0  0  0  0  0  0  0  0  0  0
  1  4  1  0  0  0  0
  1  9  3  0  0  0  0
  2  3  2  0  0  0  0
  2 10  1  0  0  0  0
  3 11  1  0  0  0  0
  4 10  2  0  0  0  0
  4 11  1  0  0  0  0
  5  6  1  0  0  0  0
  5 12  1  0  0  0  0
  5 13  2  0  0  0  0
  6 11  1  0  0  0  0
  7  8  1  0  0  0  0
  7 12  1  0  0  0  0
  8 14  1  0  0  0  0
  2 15  1  0  0  0  0
  3 16  1  0  0  0  0
  6 17  1  0  0  0  0
  6 18  1  0  0  0  0
  7 19  1  0  0  0  0
  7 20  1  0  0  0  0
  8 21  1  0  0  0  0
  8 22  1  0  0  0  0
 12 23  1  0  0  0  0
 14 24  1  0  0  0  0
M  END
> <FRED Chemgauss4 score>
-5.258042

$$$$
C16951178	P112299492
  -OEChem-05122015083D

 20 21  0     1  0  0  0  0  0999 V2000
   55.4217  158.0560   -2.9293 C   0  0  0  0  0  0  0  0  0  0  0  0
   55.9430  155.2331   -5.8782 C   0  0  0  0  0  0  0  0  0  0  0  0
   54.2513  157.2718   -3.4533 C   0  0  1  0  0  0  0  0  0  0  0  0
   54.4430  155.2438   -5.9739 C   0  0  1  0  0  0  0  0  0  0  0  0
   54.2713  155.7479   -3.4830 C   0  0  2  0  0  0  0  0  0  0  0  0
   53.5714  155.1789   -4.7251 C   0  0  1  0  0  0  0  0  0  0  0  0
   54.2411  157.8411   -2.1401 O   0  0  0  0  0  0  0  0  0  0  0  0
   55.2083  156.4465   -6.1033 O   0  0  0  0  0  0  0  0  0  0  0  0
   53.6267  155.2607   -2.3078 O   0  0  0  0  0  0  0  0  0  0  0  0
   52.3626  155.8912   -4.9816 O   0  0  0  0  0  0  0  0  0  0  0  0
   56.3197  157.5254   -2.6413 H   0  0  0  0  0  0  0  0  0  0  0  0
   55.5846  159.0517   -3.3206 H   0  0  0  0  0  0  0  0  0  0  0  0
   56.4040  155.0998   -4.9083 H   0  0  0  0  0  0  0  0  0  0  0  0
   56.5043  154.8291   -6.7105 H   0  0  0  0  0  0  0  0  0  0  0  0
   53.6170  157.7144   -4.2082 H   0  0  0  0  0  0  0  0  0  0  0  0
   53.9693  154.8407   -6.8577 H   0  0  0  0  0  0  0  0  0  0  0  0
   55.3094  155.3968   -3.4610 H   0  0  0  0  0  0  0  0  0  0  0  0
   53.2955  154.1349   -4.5395 H   0  0  0  0  0  0  0  0  0  0  0  0
   53.6569  154.2930   -2.3585 H   0  0  0  0  0  0  0  0  0  0  0  0
   51.9377  155.4503   -5.7332 H   0  0  0  0  0  0  0  0  0  0  0  0
  1  3  1  0  0  0  0
  1  7  1  0  0  0  0
  2  4  1  0  0  0  0
  2  8  1  0  0  0  0
  3  5  1  0  0  0  0
  3  7  1  0  0  0  0
  4  6  1  0  0  0  0
  4  8  1  0  0  0  0
  5  6  1  0  0  0  0
  5  9  1  0  0  0  0
  6 10  1  0  0  0  0
  1 11  1  0  0  0  0
  1 12  1  0  0  0  0
  2 13  1  0  0  0  0
  2 14  1  0  0  0  0
  3 15  1  0  0  0  0
  4 16  1  0  0  0  0
  5 17  1  0  0  0  0
  6 18  1  0  0  0  0
  9 19  1  0  0  0  0
 10 20  1  0  0  0  0
M  END
> <FRED Chemgauss4 score>
-5.252942

$$$$
C82450205	P128859289
  -OEChem-05122015083D

 21 21  0     1  0  0  0  0  0999 V2000
   55.0038  155.7640   -4.2341 C   0  0  0  0  0  0  0  0  0  0  0  0
   54.0380  156.0568   -3.3361 C   0  0  0  0  0  0  0  0  0  0  0  0
   56.1801  156.6484   -4.3931 C   0  0  0  0  0  0  0  0  0  0  0  0
   55.1393  157.9641   -2.6710 C   0  0  0  0  0  0  0  0  0  0  0  0
   56.4811  159.1224   -0.9310 C   0  0  0  0  0  0  0  0  0  0  0  0
   55.2650  159.2004   -1.8279 C   0  0  2  0  0  0  0  0  0  0  0  0
   54.1115  157.1871   -2.5362 N   0  0  0  0  0  0  0  0  0  0  0  0
   56.1661  157.7427   -3.5583 N   0  0  0  0  0  0  0  0  0  0  0  0
   52.9669  155.1973   -3.2319 N   0  0  0  0  0  0  0  0  0  0  0  0
   54.0434  159.2541   -1.0797 N   0  0  0  0  0  0  0  0  0  0  0  0
   57.0633  156.3928   -5.2045 O   0  0  0  0  0  0  0  0  0  0  0  0
   54.9593  154.8831   -4.8664 H   0  0  0  0  0  0  0  0  0  0  0  0
   56.4423  158.2490   -0.2698 H   0  0  0  0  0  0  0  0  0  0  0  0
   57.3951  159.0443   -1.5292 H   0  0  0  0  0  0  0  0  0  0  0  0
   56.5587  160.0127   -0.2982 H   0  0  0  0  0  0  0  0  0  0  0  0
   55.3061  160.0703   -2.4848 H   0  0  0  0  0  0  0  0  0  0  0  0
   56.9423  158.3959   -3.6103 H   0  0  0  0  0  0  0  0  0  0  0  0
   52.9518  154.4010   -3.8209 H   0  0  0  0  0  0  0  0  0  0  0  0
   52.2600  155.4140   -2.5728 H   0  0  0  0  0  0  0  0  0  0  0  0
   53.1915  158.9060   -1.4955 H   0  0  0  0  0  0  0  0  0  0  0  0
   53.9999  159.8150   -0.2410 H   0  0  0  0  0  0  0  0  0  0  0  0
  1  2  2  0  0  0  0
  1  3  1  0  0  0  0
  2  7  1  0  0  0  0
  2  9  1  0  0  0  0
  3  8  1  0  0  0  0
  3 11  2  0  0  0  0
  4  6  1  0  0  0  0
  4  7  2  0  0  0  0
  4  8  1  0  0  0  0
  5  6  1  0  0  0  0
  6 10  1  0  0  0  0
  1 12  1  0  0  0  0
  5 13  1  0  0  0  0
  5 14  1  0  0  0  0
  5 15  1  0  0  0  0
  6 16  1  0  0  0  0
  8 17  1  0  0  0  0
  9 18  1  0  0  0  0
  9 19  1  0  0  0  0
 10 20  1  0  0  0  0
 10 21  1  0  0  0  0
M  END
> <FRED Chemgauss4 score>
-5.252259

$$$$
C35798415	P53128470
  -OEChem-05122015083D

 38 38  0     0  0  0  0  0  0999 V2000
   57.3871  162.3899    0.2029 C   0  0  0  0  0  0  0  0  0  0  0  0
   57.4148  160.0896    0.9410 C   0  0  0  0  0  0  0  0  0  0  0  0
   57.1240  161.9685   -1.1005 C   0  0  0  0  0  0  0  0  0  0  0  0
   57.1517  159.6682   -0.3624 C   0  0  0  0  0  0  0  0  0  0  0  0
   57.5325  161.4504    1.2237 C   0  0  0  0  0  0  0  0  0  0  0  0
   57.0063  160.6077   -1.3831 C   0  0  0  0  0  0  0  0  0  0  0  0
   57.8064  161.8887    2.5832 C   0  0  0  0  0  0  0  0  0  0  0  0
   54.1926  154.1902   -6.7982 C   0  0  0  0  0  0  0  0  0  0  0  0
   56.7227  160.1558   -2.7825 C   0  0  0  0  0  0  0  0  0  0  0  0
   55.2342  157.4042   -6.1920 C   0  0  0  0  0  0  0  0  0  0  0  0
   55.8444  158.1987   -5.0496 C   0  0  0  0  0  0  0  0  0  0  0  0
   58.9587  162.6119    2.7922 N   0  0  0  0  0  0  0  0  0  0  0  0
   54.0311  156.6626   -5.7734 N   0  0  0  0  0  0  0  0  0  0  0  0
   54.9188  159.1535   -4.5028 N   0  0  0  0  0  0  0  0  0  0  0  0
   53.0012  154.6508   -4.5138 O   0  0  0  0  0  0  0  0  0  0  0  0
   55.5075  154.8853   -4.6551 O   0  0  0  0  0  0  0  0  0  0  0  0
   54.9030  158.4397   -2.0118 O   0  0  0  0  0  0  0  0  0  0  0  0
   54.1965  160.7841   -2.6127 O   0  0  0  0  0  0  0  0  0  0  0  0
   56.7522  161.5529    3.8410 S   0  0  0  0  0  0  0  0  0  0  0  0
   54.1908  155.0484   -5.2409 S   0  0  0  0  0  0  0  0  0  0  0  0
   55.0285  159.6192   -2.8454 S   0  0  0  0  0  0  0  0  0  0  0  0
   57.4769  163.4525    0.4126 H   0  0  0  0  0  0  0  0  0  0  0  0
   57.5263  159.3486    1.7284 H   0  0  0  0  0  0  0  0  0  0  0  0
   57.0119  162.7073   -1.8895 H   0  0  0  0  0  0  0  0  0  0  0  0
   57.0610  158.6058   -0.5736 H   0  0  0  0  0  0  0  0  0  0  0  0
   54.2913  153.1213   -6.6023 H   0  0  0  0  0  0  0  0  0  0  0  0
   53.2512  154.4001   -7.3082 H   0  0  0  0  0  0  0  0  0  0  0  0
   55.0363  154.5502   -7.3888 H   0  0  0  0  0  0  0  0  0  0  0  0
   57.3574  159.3159   -3.0786 H   0  0  0  0  0  0  0  0  0  0  0  0
   56.8512  160.9640   -3.5081 H   0  0  0  0  0  0  0  0  0  0  0  0
   55.9440  156.6749   -6.5953 H   0  0  0  0  0  0  0  0  0  0  0  0
   54.9311  158.0784   -6.9991 H   0  0  0  0  0  0  0  0  0  0  0  0
   56.1339  157.5286   -4.2343 H   0  0  0  0  0  0  0  0  0  0  0  0
   56.7315  158.7505   -5.3769 H   0  0  0  0  0  0  0  0  0  0  0  0
   59.6072  162.8361    2.0442 H   0  0  0  0  0  0  0  0  0  0  0  0
   59.2071  162.9408    3.7194 H   0  0  0  0  0  0  0  0  0  0  0  0
   53.1894  156.8914   -6.3179 H   0  0  0  0  0  0  0  0  0  0  0  0
   54.6208  159.9171   -5.1485 H   0  0  0  0  0  0  0  0  0  0  0  0
  1  3  2  0  0  0  0
  1  5  1  0  0  0  0
  2  4  1  0  0  0  0
  2  5  2  0  0  0  0
  3  6  1  0  0  0  0
  4  6  2  0  0  0  0
  5  7  1  0  0  0  0
  6  9  1  0  0  0  0
  7 12  1  0  0  0  0
  7 19  2  0  0  0  0
  8 20  1  0  0  0  0
  9 21  1  0  0  0  0
 10 11  1  0  0  0  0
 10 13  1  0  0  0  0
 11 14  1  0  0  0  0
 13 20  1  0  0  0  0
 14 21  1  0  0  0  0
 15 20  2  0  0  0  0
 16 20  2  0  0  0  0
 17 21  2  0  0  0  0
 18 21  2  0  0  0  0
  1 22  1  0  0  0  0
  2 23  1  0  0  0  0
  3 24  1  0  0  0  0
  4 25  1  0  0  0  0
  8 26  1  0  0  0  0
  8 27  1  0  0  0  0
  8 28  1  0  0  0  0
  9 29  1  0  0  0  0
  9 30  1  0  0  0  0
 10 31  1  0  0  0  0
 10 32  1  0  0  0  0
 11 33  1  0  0  0  0
 11 34  1  0  0  0  0
 12 35  1  0  0  0  0
 12 36  1  0  0  0  0
 13 37  1  0  0  0  0
 14 38  1  0  0  0  0
M  END
> <FRED Chemgauss4 score>
-5.244382

$$$$
C57315525	P86042858
  -OEChem-05122015083D

 44 46  0     1  0  0  0  0  0999 V2000
   58.4658  162.1283   -0.8749 C   0  0  0  0  0  0  0  0  0  0  0  0
   59.7466  161.7111   -0.5818 C   0  0  0  0  0  0  0  0  0  0  0  0
   55.2183  152.5834   -7.9984 C   0  0  0  0  0  0  0  0  0  0  0  0
   57.8681  161.3498   -1.9142 C   0  0  0  0  0  0  0  0  0  0  0  0
   58.7306  160.3655   -2.3538 C   0  0  0  0  0  0  0  0  0  0  0  0
   55.4260  152.0931   -6.7262 C   0  0  0  0  0  0  0  0  0  0  0  0
   54.1864  153.8279   -6.2126 C   0  0  0  0  0  0  0  0  0  0  0  0
   54.1594  156.1511   -5.3020 C   0  0  0  0  0  0  0  0  0  0  0  0
   54.1573  158.9585   -3.7591 C   0  0  0  0  0  0  0  0  0  0  0  0
   58.3833  159.3530   -3.3937 C   0  0  0  0  0  0  0  0  0  0  0  0
   57.0783  159.7463   -4.1106 C   0  0  0  0  0  0  0  0  0  0  0  0
   56.4890  161.5355   -2.5050 C   0  0  1  0  0  0  0  0  0  0  0  0
   56.2138  150.8926   -6.3828 C   0  0  0  0  0  0  0  0  0  0  0  0
   56.4506  162.7800   -3.4058 C   0  0  0  0  0  0  0  0  0  0  0  0
   53.4144  154.8372   -5.4053 C   0  0  0  0  0  0  0  0  0  0  0  0
   54.7570  160.3461   -3.7797 C   0  0  0  0  0  0  0  0  0  0  0  0
   54.8355  152.8056   -5.7008 N   0  0  0  0  0  0  0  0  0  0  0  0
   56.0769  160.2664   -3.1604 N   0  0  1  0  0  0  0  0  0  0  0  0
   53.3155  157.2340   -5.1532 N   0  0  0  0  0  0  0  0  0  0  0  0
   53.8592  158.4874   -5.0232 N   0  0  0  0  0  0  0  0  0  0  0  0
   55.3878  156.2041   -5.3301 O   0  0  0  0  0  0  0  0  0  0  0  0
   53.9755  158.3415   -2.7106 O   0  0  0  0  0  0  0  0  0  0  0  0
   60.2270  160.3815   -1.5485 S   0  0  0  0  0  0  0  0  0  0  0  0
   54.2437  153.9925   -7.9198 S   0  0  0  0  0  0  0  0  0  0  0  0
   57.9891  162.9538   -0.3654 H   0  0  0  0  0  0  0  0  0  0  0  0
   60.4202  162.1203    0.1585 H   0  0  0  0  0  0  0  0  0  0  0  0
   55.5782  152.1964   -8.9412 H   0  0  0  0  0  0  0  0  0  0  0  0
   59.2050  159.2892   -4.1250 H   0  0  0  0  0  0  0  0  0  0  0  0
   58.2654  158.3530   -2.9492 H   0  0  0  0  0  0  0  0  0  0  0  0
   57.3343  160.5103   -4.8576 H   0  0  0  0  0  0  0  0  0  0  0  0
   56.6745  158.8827   -4.6599 H   0  0  0  0  0  0  0  0  0  0  0  0
   55.8195  161.7170   -1.6220 H   0  0  0  0  0  0  0  0  0  0  0  0
   57.2710  151.1488   -6.2054 H   0  0  0  0  0  0  0  0  0  0  0  0
   55.8328  150.3936   -5.4756 H   0  0  0  0  0  0  0  0  0  0  0  0
   56.1822  150.1344   -7.1839 H   0  0  0  0  0  0  0  0  0  0  0  0
   57.0937  162.6210   -4.2656 H   0  0  0  0  0  0  0  0  0  0  0  0
   56.7995  163.6407   -2.8441 H   0  0  0  0  0  0  0  0  0  0  0  0
   55.4318  162.9507   -3.7391 H   0  0  0  0  0  0  0  0  0  0  0  0
   52.4400  155.0384   -5.8672 H   0  0  0  0  0  0  0  0  0  0  0  0
   53.1961  154.4249   -4.4129 H   0  0  0  0  0  0  0  0  0  0  0  0
   54.1045  161.0105   -3.2048 H   0  0  0  0  0  0  0  0  0  0  0  0
   54.8388  160.7404   -4.7971 H   0  0  0  0  0  0  0  0  0  0  0  0
   52.3093  157.1050   -5.1401 H   0  0  0  0  0  0  0  0  0  0  0  0
   54.0105  159.0108   -5.8789 H   0  0  0  0  0  0  0  0  0  0  0  0
  1  2  2  0  0  0  0
  1  4  1  0  0  0  0
  2 23  1  0  0  0  0
  3  6  2  0  0  0  0
  3 24  1  0  0  0  0
  4  5  2  0  0  0  0
  4 12  1  0  0  0  0
  5 10  1  0  0  0  0
  5 23  1  0  0  0  0
  6 13  1  0  0  0  0
  6 17  1  0  0  0  0
  7 15  1  0  0  0  0
  7 17  2  0  0  0  0
  7 24  1  0  0  0  0
  8 15  1  0  0  0  0
  8 19  1  0  0  0  0
  8 21  2  0  0  0  0
  9 16  1  0  0  0  0
  9 20  1  0  0  0  0
  9 22  2  0  0  0  0
 10 11  1  0  0  0  0
 11 18  1  0  0  0  0
 12 14  1  0  0  0  0
 12 18  1  0  0  0  0
 16 18  1  0  0  0  0
 19 20  1  0  0  0  0
  1 25  1  0  0  0  0
  2 26  1  0  0  0  0
  3 27  1  0  0  0  0
 10 28  1  0  0  0  0
 10 29  1  0  0  0  0
 11 30  1  0  0  0  0
 11 31  1  0  0  0  0
 12 32  1  0  0  0  0
 13 33  1  0  0  0  0
 13 34  1  0  0  0  0
 13 35  1  0  0  0  0
 14 36  1  0  0  0  0
 14 37  1  0  0  0  0
 14 38  1  0  0  0  0
 15 39  1  0  0  0  0
 15 40  1  0  0  0  0
 16 41  1  0  0  0  0
 16 42  1  0  0  0  0
 19 43  1  0  0  0  0
 20 44  1  0  0  0  0
M  END
> <FRED Chemgauss4 score>
-5.244266

$$$$
C88142891	P137854538
  -OEChem-05122015083D

 29 30  0     1  0  0  0  0  0999 V2000
   55.4559  158.6070   -2.8050 C   0  0  0  0  0  0  0  0  0  0  0  0
   55.1690  157.4046   -4.5044 C   0  0  0  0  0  0  0  0  0  0  0  0
   56.7137  159.1278   -0.6684 C   0  0  0  0  0  0  0  0  0  0  0  0
   58.1764  158.9685   -1.0086 C   0  0  0  0  0  0  0  0  0  0  0  0
   56.1142  159.6756   -1.9586 C   0  0  1  0  0  0  0  0  0  0  0  0
   58.4226  160.1075   -1.9826 C   0  0  2  0  0  0  0  0  0  0  0  0
   58.8221  161.4062   -1.2944 C   0  0  0  0  0  0  0  0  0  0  0  0
   56.4324  155.7166   -5.9063 C   0  0  0  0  0  0  0  0  0  0  0  0
   55.4403  156.9002   -5.8564 C   0  0  1  0  0  0  0  0  0  0  0  0
   54.4318  157.8337   -2.5295 N   0  0  0  0  0  0  0  0  0  0  0  0
   54.2432  157.0426   -3.6475 N   0  0  0  0  0  0  0  0  0  0  0  0
   54.2343  156.4906   -6.5743 N   0  0  0  0  0  0  0  0  0  0  0  0
   55.9809  158.3949   -4.0428 O   0  0  0  0  0  0  0  0  0  0  0  0
   57.1825  160.3212   -2.6775 O   0  0  0  0  0  0  0  0  0  0  0  0
   56.2857  158.1452   -0.4100 H   0  0  0  0  0  0  0  0  0  0  0  0
   56.5400  159.7903    0.1917 H   0  0  0  0  0  0  0  0  0  0  0  0
   58.7814  159.0923   -0.0962 H   0  0  0  0  0  0  0  0  0  0  0  0
   58.4171  157.9845   -1.4349 H   0  0  0  0  0  0  0  0  0  0  0  0
   55.3568  160.4588   -1.7206 H   0  0  0  0  0  0  0  0  0  0  0  0
   59.1731  159.8346   -2.7206 H   0  0  0  0  0  0  0  0  0  0  0  0
   58.0732  161.6883   -0.5506 H   0  0  0  0  0  0  0  0  0  0  0  0
   58.9072  162.2134   -2.0257 H   0  0  0  0  0  0  0  0  0  0  0  0
   59.7851  161.2894   -0.7915 H   0  0  0  0  0  0  0  0  0  0  0  0
   56.0673  154.8899   -5.2872 H   0  0  0  0  0  0  0  0  0  0  0  0
   56.5733  155.3406   -6.9259 H   0  0  0  0  0  0  0  0  0  0  0  0
   57.4199  156.0087   -5.5318 H   0  0  0  0  0  0  0  0  0  0  0  0
   55.8778  157.6923   -6.5037 H   0  0  0  0  0  0  0  0  0  0  0  0
   54.3307  155.8226   -7.3069 H   0  0  0  0  0  0  0  0  0  0  0  0
   53.4085  157.0335   -6.4485 H   0  0  0  0  0  0  0  0  0  0  0  0
  1  5  1  0  0  0  0
  1 10  2  0  0  0  0
  1 13  1  0  0  0  0
  2  9  1  0  0  0  0
  2 11  2  0  0  0  0
  2 13  1  0  0  0  0
  3  4  1  0  0  0  0
  3  5  1  0  0  0  0
  4  6  1  0  0  0  0
  5 14  1  0  0  0  0
  6  7  1  0  0  0  0
  6 14  1  0  0  0  0
  8  9  1  0  0  0  0
  9 12  1  0  0  0  0
 10 11  1  0  0  0  0
  3 15  1  0  0  0  0
  3 16  1  0  0  0  0
  4 17  1  0  0  0  0
  4 18  1  0  0  0  0
  5 19  1  0  0  0  0
  6 20  1  0  0  0  0
  7 21  1  0  0  0  0
  7 22  1  0  0  0  0
  7 23  1  0  0  0  0
  8 24  1  0  0  0  0
  8 25  1  0  0  0  0
  8 26  1  0  0  0  0
  9 27  1  0  0  0  0
 12 28  1  0  0  0  0
 12 29  1  0  0  0  0
M  END
> <FRED Chemgauss4 score>
-5.239554

$$$$
C88037185	P137697142
  -OEChem-05122015083D

 25 26  0     1  0  0  0  0  0999 V2000
   58.0332  159.4000   -2.1218 C   0  0  0  0  0  0  0  0  0  0  0  0
   58.0663  159.9070   -0.8255 C   0  0  0  0  0  0  0  0  0  0  0  0
   56.8294  158.8212   -2.5086 C   0  0  0  0  0  0  0  0  0  0  0  0
   56.9314  159.8057   -0.0276 C   0  0  0  0  0  0  0  0  0  0  0  0
   55.7352  158.7565   -1.6533 C   0  0  0  0  0  0  0  0  0  0  0  0
   55.0987  157.8360   -3.4636 C   0  0  0  0  0  0  0  0  0  0  0  0
   56.9901  160.3574    1.3610 C   0  0  0  0  0  0  0  0  0  0  0  0
   54.7677  157.5487   -5.9536 C   0  0  0  0  0  0  0  0  0  0  0  0
   54.3339  157.1568   -4.5261 C   0  0  2  0  0  0  0  0  0  0  0  0
   55.7525  159.2460   -0.3885 N   0  0  0  0  0  0  0  0  0  0  0  0
   54.6680  158.1427   -2.2593 N   0  0  0  0  0  0  0  0  0  0  0  0
   56.3963  158.2254   -3.6617 N   0  0  0  0  0  0  0  0  0  0  0  0
   52.8936  157.3536   -4.3968 N   0  0  0  0  0  0  0  0  0  0  0  0
   58.8897  159.4541   -2.7825 H   0  0  0  0  0  0  0  0  0  0  0  0
   58.9729  160.3740   -0.4525 H   0  0  0  0  0  0  0  0  0  0  0  0
   56.6788  161.4077    1.3639 H   0  0  0  0  0  0  0  0  0  0  0  0
   56.3351  159.7952    2.0369 H   0  0  0  0  0  0  0  0  0  0  0  0
   58.0054  160.2908    1.7693 H   0  0  0  0  0  0  0  0  0  0  0  0
   54.6755  158.6310   -6.0963 H   0  0  0  0  0  0  0  0  0  0  0  0
   55.8074  157.2672   -6.1553 H   0  0  0  0  0  0  0  0  0  0  0  0
   54.1479  157.0542   -6.7099 H   0  0  0  0  0  0  0  0  0  0  0  0
   54.4553  156.0551   -4.4619 H   0  0  0  0  0  0  0  0  0  0  0  0
   56.9374  158.0965   -4.5065 H   0  0  0  0  0  0  0  0  0  0  0  0
   52.5028  157.3755   -3.4794 H   0  0  0  0  0  0  0  0  0  0  0  0
   52.3307  157.2554   -5.2143 H   0  0  0  0  0  0  0  0  0  0  0  0
  1  2  2  0  0  0  0
  1  3  1  0  0  0  0
  2  4  1  0  0  0  0
  3  5  2  0  0  0  0
  3 12  1  0  0  0  0
  4  7  1  0  0  0  0
  4 10  2  0  0  0  0
  5 10  1  0  0  0  0
  5 11  1  0  0  0  0
  6  9  1  0  0  0  0
  6 11  2  0  0  0  0
  6 12  1  0  0  0  0
  8  9  1  0  0  0  0
  9 13  1  0  0  0  0
  1 14  1  0  0  0  0
  2 15  1  0  0  0  0
  7 16  1  0  0  0  0
  7 17  1  0  0  0  0
  7 18  1  0  0  0  0
  8 19  1  0  0  0  0
  8 20  1  0  0  0  0
  8 21  1  0  0  0  0
  9 22  1  0  0  0  0
 12 23  1  0  0  0  0
 13 24  1  0  0  0  0
 13 25  1  0  0  0  0
M  END
> <FRED Chemgauss4 score>
-5.239527

$$$$
C36872229	P120860510
  -OEChem-05122015083D

 24 25  0     1  0  0  0  0  0999 V2000
   57.6958  154.1671   -6.8959 C   0  0  0  0  0  0  0  0  0  0  0  0
   56.5363  154.5339   -6.1719 C   0  0  0  0  0  0  0  0  0  0  0  0
   55.2724  156.6302   -3.9163 C   0  0  0  0  0  0  0  0  0  0  0  0
   58.4475  155.3125   -7.0191 C   0  0  0  0  0  0  0  0  0  0  0  0
   55.7526  156.6987   -5.2029 C   0  0  0  0  0  0  0  0  0  0  0  0
   56.6622  155.8772   -5.9040 C   0  0  0  0  0  0  0  0  0  0  0  0
   54.3411  158.3377   -4.7810 C   0  0  0  0  0  0  0  0  0  0  0  0
   54.1747  160.5112   -6.0643 C   0  0  0  0  0  0  0  0  0  0  0  0
   53.5174  159.5789   -5.0488 C   0  0  1  0  0  0  0  0  0  0  0  0
   54.3940  157.6530   -3.6601 N   0  0  0  0  0  0  0  0  0  0  0  0
   55.1467  157.7973   -5.7444 N   0  0  0  0  0  0  0  0  0  0  0  0
   52.1789  159.2425   -5.4770 N   0  0  0  0  0  0  0  0  0  0  0  0
   57.8245  156.3593   -6.4170 O   0  0  0  0  0  0  0  0  0  0  0  0
   57.9512  153.1901   -7.2799 H   0  0  0  0  0  0  0  0  0  0  0  0
   55.7150  153.8915   -5.8854 H   0  0  0  0  0  0  0  0  0  0  0  0
   55.5122  155.8991   -3.1571 H   0  0  0  0  0  0  0  0  0  0  0  0
   59.3977  155.5377   -7.4808 H   0  0  0  0  0  0  0  0  0  0  0  0
   54.3244  160.0060   -7.0247 H   0  0  0  0  0  0  0  0  0  0  0  0
   53.5472  161.3925   -6.2387 H   0  0  0  0  0  0  0  0  0  0  0  0
   55.1490  160.8736   -5.7176 H   0  0  0  0  0  0  0  0  0  0  0  0
   53.3939  160.1372   -4.1127 H   0  0  0  0  0  0  0  0  0  0  0  0
   55.2727  158.1502   -6.6843 H   0  0  0  0  0  0  0  0  0  0  0  0
   51.6485  159.9243   -5.9892 H   0  0  0  0  0  0  0  0  0  0  0  0
   51.7353  158.4304   -5.0867 H   0  0  0  0  0  0  0  0  0  0  0  0
  1  2  1  0  0  0  0
  1  4  2  0  0  0  0
  2  6  2  0  0  0  0
  3  5  2  0  0  0  0
  3 10  1  0  0  0  0
  4 13  1  0  0  0  0
  5  6  1  0  0  0  0
  5 11  1  0  0  0  0
  6 13  1  0  0  0  0
  7  9  1  0  0  0  0
  7 10  2  0  0  0  0
  7 11  1  0  0  0  0
  8  9  1  0  0  0  0
  9 12  1  0  0  0  0
  1 14  1  0  0  0  0
  2 15  1  0  0  0  0
  3 16  1  0  0  0  0
  4 17  1  0  0  0  0
  8 18  1  0  0  0  0
  8 19  1  0  0  0  0
  8 20  1  0  0  0  0
  9 21  1  0  0  0  0
 11 22  1  0  0  0  0
 12 23  1  0  0  0  0
 12 24  1  0  0  0  0
M  END
> <FRED Chemgauss4 score>
-5.235326

$$$$
C77264475	P120544761
  -OEChem-05122015083D

 27 27  0     1  0  0  0  0  0999 V2000
   56.8144  159.4617   -2.9254 C   0  0  0  0  0  0  0  0  0  0  0  0
   56.1799  160.8338   -2.7680 C   0  0  2  0  0  0  0  0  0  0  0  0
   55.0018  160.7522   -3.7168 C   0  0  1  0  0  0  0  0  0  0  0  0
   54.5717  159.3047   -3.5414 C   0  0  1  0  0  0  0  0  0  0  0  0
   55.0195  155.8821   -5.0023 C   0  0  0  0  0  0  0  0  0  0  0  0
   53.8087  158.7552   -4.7331 C   0  0  0  0  0  0  0  0  0  0  0  0
   57.0797  161.9061   -3.0874 N   0  0  0  0  0  0  0  0  0  0  0  0
   53.0620  157.6039   -4.3452 N   0  0  0  0  0  0  0  0  0  0  0  0
   52.9188  155.1119   -3.6443 O   0  0  0  0  0  0  0  0  0  0  0  0
   54.6271  156.5876   -2.5216 O   0  0  0  0  0  0  0  0  0  0  0  0
   55.7822  158.5576   -3.3522 O   0  0  0  0  0  0  0  0  0  0  0  0
   53.9677  161.6556   -3.3761 O   0  0  0  0  0  0  0  0  0  0  0  0
   53.8608  156.2128   -3.6946 S   0  0  0  0  0  0  0  0  0  0  0  0
   57.6469  159.4297   -3.6392 H   0  0  0  0  0  0  0  0  0  0  0  0
   57.1925  159.0968   -1.9609 H   0  0  0  0  0  0  0  0  0  0  0  0
   55.8372  160.9600   -1.7022 H   0  0  0  0  0  0  0  0  0  0  0  0
   55.2904  160.9777   -4.7790 H   0  0  0  0  0  0  0  0  0  0  0  0
   53.9637  159.1795   -2.6298 H   0  0  0  0  0  0  0  0  0  0  0  0
   55.6101  155.0071   -4.7261 H   0  0  0  0  0  0  0  0  0  0  0  0
   54.4592  155.6914   -5.9188 H   0  0  0  0  0  0  0  0  0  0  0  0
   55.6625  156.7554   -5.1215 H   0  0  0  0  0  0  0  0  0  0  0  0
   54.5154  158.4764   -5.5061 H   0  0  0  0  0  0  0  0  0  0  0  0
   53.1271  159.5127   -5.1010 H   0  0  0  0  0  0  0  0  0  0  0  0
   58.0351  161.8090   -2.8227 H   0  0  0  0  0  0  0  0  0  0  0  0
   56.6872  162.7768   -3.3705 H   0  0  0  0  0  0  0  0  0  0  0  0
   52.2229  157.3746   -4.9309 H   0  0  0  0  0  0  0  0  0  0  0  0
   53.6823  161.4171   -2.4819 H   0  0  0  0  0  0  0  0  0  0  0  0
  1  2  1  0  0  0  0
  1 11  1  0  0  0  0
  2  3  1  0  0  0  0
  2  7  1  0  0  0  0
  3  4  1  0  0  0  0
  3 12  1  0  0  0  0
  4  6  1  0  0  0  0
  4 11  1  0  0  0  0
  5 13  1  0  0  0  0
  6  8  1  0  0  0  0
  8 13  1  0  0  0  0
  9 13  2  0  0  0  0
 10 13  2  0  0  0  0
  1 14  1  0  0  0  0
  1 15  1  0  0  0  0
  2 16  1  0  0  0  0
  3 17  1  0  0  0  0
  4 18  1  0  0  0  0
  5 19  1  0  0  0  0
  5 20  1  0  0  0  0
  5 21  1  0  0  0  0
  6 22  1  0  0  0  0
  6 23  1  0  0  0  0
  7 24  1  0  0  0  0
  7 25  1  0  0  0  0
  8 26  1  0  0  0  0
 12 27  1  0  0  0  0
M  END
> <FRED Chemgauss4 score>
-5.232692

$$$$
C18140548	P112439822
  -OEChem-05122015083D

 22 22  0     0  0  0  0  0  0999 V2000
   56.8265  155.0530   -6.3414 C   0  0  0  0  0  0  0  0  0  0  0  0
   56.8070  153.7271   -6.9933 C   0  0  0  0  0  0  0  0  0  0  0  0
   58.1521  155.6604   -6.5484 C   0  0  0  0  0  0  0  0  0  0  0  0
   55.8146  155.6077   -5.6764 C   0  0  0  0  0  0  0  0  0  0  0  0
   58.1472  153.4807   -7.6310 C   0  0  0  0  0  0  0  0  0  0  0  0
   53.5480  155.6429   -4.7886 C   0  0  0  0  0  0  0  0  0  0  0  0
   53.7977  155.5072   -3.2977 C   0  0  0  0  0  0  0  0  0  0  0  0
   58.8503  154.7105   -7.2897 N   0  0  0  0  0  0  0  0  0  0  0  0
   54.6079  154.9973   -5.5161 N   0  0  0  0  0  0  0  0  0  0  0  0
   55.8598  152.9597   -7.0112 O   0  0  0  0  0  0  0  0  0  0  0  0
   58.5270  156.7476   -6.1506 O   0  0  0  0  0  0  0  0  0  0  0  0
   52.7669  156.1771   -2.5833 O   0  0  0  0  0  0  0  0  0  0  0  0
   55.9002  156.5880   -5.2205 H   0  0  0  0  0  0  0  0  0  0  0  0
   58.6638  152.6351   -7.1750 H   0  0  0  0  0  0  0  0  0  0  0  0
   58.0709  153.4022   -8.7164 H   0  0  0  0  0  0  0  0  0  0  0  0
   52.6006  155.1761   -5.0764 H   0  0  0  0  0  0  0  0  0  0  0  0
   53.5296  156.6981   -5.0772 H   0  0  0  0  0  0  0  0  0  0  0  0
   54.7511  155.9752   -3.0333 H   0  0  0  0  0  0  0  0  0  0  0  0
   53.8169  154.4576   -2.9866 H   0  0  0  0  0  0  0  0  0  0  0  0
   59.8099  154.8686   -7.5806 H   0  0  0  0  0  0  0  0  0  0  0  0
   54.5001  154.0973   -5.9223 H   0  0  0  0  0  0  0  0  0  0  0  0
   52.9637  156.0665   -1.6392 H   0  0  0  0  0  0  0  0  0  0  0  0
  1  2  1  0  0  0  0
  1  3  1  0  0  0  0
  1  4  2  0  0  0  0
  2  5  1  0  0  0  0
  2 10  2  0  0  0  0
  3  8  1  0  0  0  0
  3 11  2  0  0  0  0
  4  9  1  0  0  0  0
  5  8  1  0  0  0  0
  6  7  1  0  0  0  0
  6  9  1  0  0  0  0
  7 12  1  0  0  0  0
  4 13  1  0  0  0  0
  5 14  1  0  0  0  0
  5 15  1  0  0  0  0
  6 16  1  0  0  0  0
  6 17  1  0  0  0  0
  7 18  1  0  0  0  0
  7 19  1  0  0  0  0
  8 20  1  0  0  0  0
  9 21  1  0  0  0  0
 12 22  1  0  0  0  0
M  END
> <FRED Chemgauss4 score>
-5.230967

$$$$
C88474213	P138392897
  -OEChem-05122015083D

 37 37  0     1  0  0  0  0  0999 V2000
   59.4049  159.8716   -5.8010 C   0  0  0  0  0  0  0  0  0  0  0  0
   57.9924  159.5106   -6.2629 C   0  0  0  0  0  0  0  0  0  0  0  0
   59.4562  161.2015   -5.0654 C   0  0  0  0  0  0  0  0  0  0  0  0
   56.8534  160.6518   -4.2995 C   0  0  0  0  0  0  0  0  0  0  0  0
   57.0120  159.3627   -5.0953 C   0  0  1  0  0  0  0  0  0  0  0  0
   56.5011  154.6768   -6.3490 C   0  0  0  0  0  0  0  0  0  0  0  0
   56.2889  155.9571   -5.5510 C   0  0  0  0  0  0  0  0  0  0  0  0
   53.8894  155.4123   -4.8739 C   0  0  0  0  0  0  0  0  0  0  0  0
   54.8271  156.4322   -5.5376 C   0  0  1  0  0  0  0  0  0  0  0  0
   52.4931  155.6404   -5.2284 N   0  0  0  0  0  0  0  0  0  0  0  0
   55.6861  158.9687   -5.6346 N   0  0  0  0  0  0  0  0  0  0  0  0
   58.8915  160.1890   -2.7093 O   0  0  0  0  0  0  0  0  0  0  0  0
   58.2437  162.5768   -3.1972 O   0  0  0  0  0  0  0  0  0  0  0  0
   53.2966  158.4259   -4.8073 O   0  0  0  0  0  0  0  0  0  0  0  0
   55.2880  157.8269   -3.3817 O   0  0  0  0  0  0  0  0  0  0  0  0
   58.4075  161.2017   -3.6272 S   0  0  0  0  0  0  0  0  0  0  0  0
   54.6724  157.9852   -4.6854 S   0  0  0  0  0  0  0  0  0  0  0  0
   59.7691  159.0837   -5.1303 H   0  0  0  0  0  0  0  0  0  0  0  0
   60.0887  159.8886   -6.6582 H   0  0  0  0  0  0  0  0  0  0  0  0
   57.6377  160.2863   -6.9414 H   0  0  0  0  0  0  0  0  0  0  0  0
   58.0278  158.5743   -6.8200 H   0  0  0  0  0  0  0  0  0  0  0  0
   60.4736  161.4254   -4.7291 H   0  0  0  0  0  0  0  0  0  0  0  0
   59.1185  162.0172   -5.7118 H   0  0  0  0  0  0  0  0  0  0  0  0
   56.4694  161.4611   -4.9138 H   0  0  0  0  0  0  0  0  0  0  0  0
   56.1903  160.4926   -3.4529 H   0  0  0  0  0  0  0  0  0  0  0  0
   57.3404  158.5782   -4.4481 H   0  0  0  0  0  0  0  0  0  0  0  0
   56.1848  154.7911   -7.3895 H   0  0  0  0  0  0  0  0  0  0  0  0
   57.5636  154.4129   -6.3562 H   0  0  0  0  0  0  0  0  0  0  0  0
   55.9487  153.8417   -5.9069 H   0  0  0  0  0  0  0  0  0  0  0  0
   56.6272  155.7642   -4.5264 H   0  0  0  0  0  0  0  0  0  0  0  0
   56.9380  156.7422   -5.9577 H   0  0  0  0  0  0  0  0  0  0  0  0
   54.1725  154.3940   -5.1650 H   0  0  0  0  0  0  0  0  0  0  0  0
   53.9857  155.4696   -3.7833 H   0  0  0  0  0  0  0  0  0  0  0  0
   54.4874  156.6283   -6.5621 H   0  0  0  0  0  0  0  0  0  0  0  0
   51.7891  155.3255   -4.5953 H   0  0  0  0  0  0  0  0  0  0  0  0
   52.2836  155.9118   -6.1655 H   0  0  0  0  0  0  0  0  0  0  0  0
   55.2447  159.6989   -6.2003 H   0  0  0  0  0  0  0  0  0  0  0  0
  1  2  1  0  0  0  0
  1  3  1  0  0  0  0
  2  5  1  0  0  0  0
  3 16  1  0  0  0  0
  4  5  1  0  0  0  0
  4 16  1  0  0  0  0
  5 11  1  0  0  0  0
  6  7  1  0  0  0  0
  7  9  1  0  0  0  0
  8  9  1  0  0  0  0
  8 10  1  0  0  0  0
  9 17  1  0  0  0  0
 11 17  1  0  0  0  0
 12 16  2  0  0  0  0
 13 16  2  0  0  0  0
 14 17  2  0  0  0  0
 15 17  2  0  0  0  0
  1 18  1  0  0  0  0
  1 19  1  0  0  0  0
  2 20  1  0  0  0  0
  2 21  1  0  0  0  0
  3 22  1  0  0  0  0
  3 23  1  0  0  0  0
  4 24  1  0  0  0  0
  4 25  1  0  0  0  0
  5 26  1  0  0  0  0
  6 27  1  0  0  0  0
  6 28  1  0  0  0  0
  6 29  1  0  0  0  0
  7 30  1  0  0  0  0
  7 31  1  0  0  0  0
  8 32  1  0  0  0  0
  8 33  1  0  0  0  0
  9 34  1  0  0  0  0
 10 35  1  0  0  0  0
 10 36  1  0  0  0  0
 11 37  1  0  0  0  0
M  END
> <FRED Chemgauss4 score>
-5.230725

$$$$
C00162133	P05572005
  -OEChem-05122015083D

 28 28  0     1  0  0  0  0  0999 V2000
   57.3399  159.3513   -5.4015 C   0  0  0  0  0  0  0  0  0  0  0  0
   56.0789  157.2678   -3.8728 C   0  0  0  0  0  0  0  0  0  0  0  0
   57.8556  158.9997   -4.0126 C   0  0  1  0  0  0  0  0  0  0  0  0
   56.4142  157.0458   -5.3414 C   0  0  1  0  0  0  0  0  0  0  0  0
   58.3286  160.2291   -3.2541 C   0  0  0  0  0  0  0  0  0  0  0  0
   55.3578  156.2095   -6.0454 C   0  0  0  0  0  0  0  0  0  0  0  0
   58.8861  159.8680   -1.8866 C   0  0  0  0  0  0  0  0  0  0  0  0
   54.0003  156.8938   -6.0385 C   0  0  0  0  0  0  0  0  0  0  0  0
   56.7649  158.3353   -3.3142 N   0  0  0  0  0  0  0  0  0  0  0  0
   56.5368  158.3626   -5.9493 N   0  0  0  0  0  0  0  0  0  0  0  0
   57.6912  160.3525   -6.0208 O   0  0  0  0  0  0  0  0  0  0  0  0
   55.3650  156.5108   -3.2194 O   0  0  0  0  0  0  0  0  0  0  0  0
   59.2940  161.0599   -1.2294 O   0  0  0  0  0  0  0  0  0  0  0  0
   53.6035  157.1097   -4.6913 O   0  0  0  0  0  0  0  0  0  0  0  0
   58.6770  158.2816   -4.1192 H   0  0  0  0  0  0  0  0  0  0  0  0
   57.3907  156.5517   -5.4034 H   0  0  0  0  0  0  0  0  0  0  0  0
   57.4987  160.9357   -3.1398 H   0  0  0  0  0  0  0  0  0  0  0  0
   59.0936  160.7531   -3.8382 H   0  0  0  0  0  0  0  0  0  0  0  0
   55.2796  155.2289   -5.5625 H   0  0  0  0  0  0  0  0  0  0  0  0
   55.6677  156.0143   -7.0782 H   0  0  0  0  0  0  0  0  0  0  0  0
   58.1267  159.3738   -1.2722 H   0  0  0  0  0  0  0  0  0  0  0  0
   59.7538  159.2072   -1.9798 H   0  0  0  0  0  0  0  0  0  0  0  0
   54.0472  157.8619   -6.5473 H   0  0  0  0  0  0  0  0  0  0  0  0
   53.2453  156.2705   -6.5283 H   0  0  0  0  0  0  0  0  0  0  0  0
   56.4986  158.6635   -2.3905 H   0  0  0  0  0  0  0  0  0  0  0  0
   56.0187  158.5632   -6.7997 H   0  0  0  0  0  0  0  0  0  0  0  0
   59.6438  160.7967   -0.3626 H   0  0  0  0  0  0  0  0  0  0  0  0
   52.7367  157.5463   -4.7207 H   0  0  0  0  0  0  0  0  0  0  0  0
  1  3  1  0  0  0  0
  1 10  1  0  0  0  0
  1 11  2  0  0  0  0
  2  4  1  0  0  0  0
  2  9  1  0  0  0  0
  2 12  2  0  0  0  0
  3  5  1  0  0  0  0
  3  9  1  0  0  0  0
  4  6  1  0  0  0  0
  4 10  1  0  0  0  0
  5  7  1  0  0  0  0
  6  8  1  0  0  0  0
  7 13  1  0  0  0  0
  8 14  1  0  0  0  0
  3 15  1  0  0  0  0
  4 16  1  0  0  0  0
  5 17  1  0  0  0  0
  5 18  1  0  0  0  0
  6 19  1  0  0  0  0
  6 20  1  0  0  0  0
  7 21  1  0  0  0  0
  7 22  1  0  0  0  0
  8 23  1  0  0  0  0
  8 24  1  0  0  0  0
  9 25  1  0  0  0  0
 10 26  1  0  0  0  0
 13 27  1  0  0  0  0
 14 28  1  0  0  0  0
M  END
> <FRED Chemgauss4 score>
-5.229844

$$$$
C82836280	P129486360
  -OEChem-05122015083D

 17 17  0     1  0  0  0  0  0999 V2000
   53.2811  155.2231   -3.3261 C   0  0  0  0  0  0  0  0  0  0  0  0
   54.8998  156.1955   -2.4001 C   0  0  0  0  0  0  0  0  0  0  0  0
   54.1193  155.6644   -4.3197 C   0  0  0  0  0  0  0  0  0  0  0  0
   55.3254  156.2870   -6.4570 C   0  0  0  0  0  0  0  0  0  0  0  0
   54.1108  155.5959   -5.8317 C   0  0  2  0  0  0  0  0  0  0  0  0
   53.7867  155.5662   -2.0982 N   0  0  0  0  0  0  0  0  0  0  0  0
   52.8874  156.1529   -6.3680 N   0  0  0  0  0  0  0  0  0  0  0  0
   55.1721  156.2963   -3.7300 O   0  0  0  0  0  0  0  0  0  0  0  0
   55.3511  157.6508   -6.0482 O   0  0  0  0  0  0  0  0  0  0  0  0
   52.3513  154.6830   -3.4254 H   0  0  0  0  0  0  0  0  0  0  0  0
   55.6181  156.6381   -1.7266 H   0  0  0  0  0  0  0  0  0  0  0  0
   56.2577  155.8220   -6.1181 H   0  0  0  0  0  0  0  0  0  0  0  0
   55.2957  156.2567   -7.5516 H   0  0  0  0  0  0  0  0  0  0  0  0
   54.1076  154.5455   -6.1494 H   0  0  0  0  0  0  0  0  0  0  0  0
   52.0347  156.0269   -5.8548 H   0  0  0  0  0  0  0  0  0  0  0  0
   52.8780  156.4676   -7.3205 H   0  0  0  0  0  0  0  0  0  0  0  0
   56.1314  158.0503   -6.4638 H   0  0  0  0  0  0  0  0  0  0  0  0
  1  3  2  0  0  0  0
  1  6  1  0  0  0  0
  2  6  2  0  0  0  0
  2  8  1  0  0  0  0
  3  5  1  0  0  0  0
  3  8  1  0  0  0  0
  4  5  1  0  0  0  0
  4  9  1  0  0  0  0
  5  7  1  0  0  0  0
  1 10  1  0  0  0  0
  2 11  1  0  0  0  0
  4 12  1  0  0  0  0
  4 13  1  0  0  0  0
  5 14  1  0  0  0  0
  7 15  1  0  0  0  0
  7 16  1  0  0  0  0
  9 17  1  0  0  0  0
M  END
> <FRED Chemgauss4 score>
-5.229523

$$$$
C78724846	P122853911
  -OEChem-05122015083D

 20 20  0     1  0  0  0  0  0999 V2000
   55.0329  157.1688   -3.0708 C   0  0  0  0  0  0  0  0  0  0  0  0
   53.4403  155.9742   -3.6982 C   0  0  0  0  0  0  0  0  0  0  0  0
   57.6700  158.9931   -4.1530 C   0  0  0  0  0  0  0  0  0  0  0  0
   56.7532  156.7924   -4.9529 C   0  0  0  0  0  0  0  0  0  0  0  0
   57.0623  158.2439   -5.3307 C   0  0  1  0  0  0  0  0  0  0  0  0
   53.7735  156.7786   -2.7156 N   0  0  0  0  0  0  0  0  0  0  0  0
   54.4622  155.8963   -4.5924 N   0  0  0  0  0  0  0  0  0  0  0  0
   55.5000  156.6566   -4.2114 N   0  0  0  0  0  0  0  0  0  0  0  0
   52.2394  155.3530   -3.7416 N   0  0  0  0  0  0  0  0  0  0  0  0
   55.8592  158.9198   -5.6899 O   0  0  0  0  0  0  0  0  0  0  0  0
   55.6138  157.8514   -2.4635 H   0  0  0  0  0  0  0  0  0  0  0  0
   57.0125  158.9614   -3.2789 H   0  0  0  0  0  0  0  0  0  0  0  0
   58.6357  158.5548   -3.8785 H   0  0  0  0  0  0  0  0  0  0  0  0
   57.8625  160.0406   -4.4108 H   0  0  0  0  0  0  0  0  0  0  0  0
   56.6566  156.1631   -5.8459 H   0  0  0  0  0  0  0  0  0  0  0  0
   57.5508  156.3682   -4.3311 H   0  0  0  0  0  0  0  0  0  0  0  0
   57.7486  158.2988   -6.1833 H   0  0  0  0  0  0  0  0  0  0  0  0
   51.5499  155.4451   -2.9829 H   0  0  0  0  0  0  0  0  0  0  0  0
   51.9971  154.6862   -4.4873 H   0  0  0  0  0  0  0  0  0  0  0  0
   56.1124  159.8247   -5.9290 H   0  0  0  0  0  0  0  0  0  0  0  0
  1  6  2  0  0  0  0
  1  8  1  0  0  0  0
  2  6  1  0  0  0  0
  2  7  2  0  0  0  0
  2  9  1  0  0  0  0
  3  5  1  0  0  0  0
  4  5  1  0  0  0  0
  4  8  1  0  0  0  0
  5 10  1  0  0  0  0
  7  8  1  0  0  0  0
  1 11  1  0  0  0  0
  3 12  1  0  0  0  0
  3 13  1  0  0  0  0
  3 14  1  0  0  0  0
  4 15  1  0  0  0  0
  4 16  1  0  0  0  0
  5 17  1  0  0  0  0
  9 18  1  0  0  0  0
  9 19  1  0  0  0  0
 10 20  1  0  0  0  0
M  END
> <FRED Chemgauss4 score>
-5.228813

$$$$
C98178296	P156128865
  -OEChem-05122015083D

 19 19  0     0  0  0  0  0  0999 V2000
   54.9028  155.6928   -4.3669 C   0  0  0  0  0  0  0  0  0  0  0  0
   54.1229  155.9788   -3.2917 C   0  0  0  0  0  0  0  0  0  0  0  0
   55.8867  156.7161   -4.8395 C   0  0  0  0  0  0  0  0  0  0  0  0
   55.0665  158.0905   -3.0204 C   0  0  0  0  0  0  0  0  0  0  0  0
   54.8977  154.4219   -5.1728 C   0  0  0  0  0  0  0  0  0  0  0  0
   54.2160  157.1909   -2.6226 N   0  0  0  0  0  0  0  0  0  0  0  0
   55.8933  157.8772   -4.1036 N   0  0  0  0  0  0  0  0  0  0  0  0
   53.2041  155.0614   -2.8277 N   0  0  0  0  0  0  0  0  0  0  0  0
   55.2012  159.3032   -2.3978 N   0  0  0  0  0  0  0  0  0  0  0  0
   56.6186  156.5194   -5.8055 O   0  0  0  0  0  0  0  0  0  0  0  0
   56.0338  153.6481   -4.8425 O   0  0  0  0  0  0  0  0  0  0  0  0
   54.9150  154.6580   -6.2339 H   0  0  0  0  0  0  0  0  0  0  0  0
   54.0003  153.8547   -4.9393 H   0  0  0  0  0  0  0  0  0  0  0  0
   56.5388  158.6143   -4.3707 H   0  0  0  0  0  0  0  0  0  0  0  0
   53.1347  154.1955   -3.3024 H   0  0  0  0  0  0  0  0  0  0  0  0
   52.6568  155.3114   -2.0417 H   0  0  0  0  0  0  0  0  0  0  0  0
   54.6236  159.4968   -1.6123 H   0  0  0  0  0  0  0  0  0  0  0  0
   55.8715  159.9448   -2.7545 H   0  0  0  0  0  0  0  0  0  0  0  0
   55.9803  153.4499   -3.8913 H   0  0  0  0  0  0  0  0  0  0  0  0
  1  2  2  0  0  0  0
  1  3  1  0  0  0  0
  1  5  1  0  0  0  0
  2  6  1  0  0  0  0
  2  8  1  0  0  0  0
  3  7  1  0  0  0  0
  3 10  2  0  0  0  0
  4  6  2  0  0  0  0
  4  7  1  0  0  0  0
  4  9  1  0  0  0  0
  5 11  1  0  0  0  0
  5 12  1  0  0  0  0
  5 13  1  0  0  0  0
  7 14  1  0  0  0  0
  8 15  1  0  0  0  0
  8 16  1  0  0  0  0
  9 17  1  0  0  0  0
  9 18  1  0  0  0  0
 11 19  1  0  0  0  0
M  END
> <FRED Chemgauss4 score>
-5.228445

$$$$
C48841183	P72986091
  -OEChem-05122015083D

 43 43  0     0  0  0  0  0  0999 V2000
   60.1280  161.0435   -1.5340 C   0  0  0  0  0  0  0  0  0  0  0  0
   55.3109  157.4943   -3.8651 C   0  0  0  0  0  0  0  0  0  0  0  0
   57.6268  158.5824   -3.7836 C   0  0  0  0  0  0  0  0  0  0  0  0
   55.6564  159.6955   -2.7929 C   0  0  0  0  0  0  0  0  0  0  0  0
   58.4566  159.0878   -2.6002 C   0  0  0  0  0  0  0  0  0  0  0  0
   56.5276  160.1435   -1.6223 C   0  0  0  0  0  0  0  0  0  0  0  0
   50.1893  159.3807   -8.0055 C   0  0  0  0  0  0  0  0  0  0  0  0
   58.7401  160.8247   -0.9554 C   0  0  0  0  0  0  0  0  0  0  0  0
   53.3557  156.3303   -5.8713 C   0  0  0  0  0  0  0  0  0  0  0  0
   54.7862  155.8470   -5.6468 C   0  0  0  0  0  0  0  0  0  0  0  0
   51.6677  159.0711   -7.9171 C   0  0  0  0  0  0  0  0  0  0  0  0
   53.2888  157.5125   -6.8301 C   0  0  0  0  0  0  0  0  0  0  0  0
   56.1965  158.5080   -3.4572 N   0  0  0  0  0  0  0  0  0  0  0  0
   57.9148  160.3418   -2.0620 N   0  0  0  0  0  0  0  0  0  0  0  0
   55.6053  156.8984   -5.0863 N   0  0  0  0  0  0  0  0  0  0  0  0
   51.8777  157.9520   -6.9585 N   0  3  0  0  0  0  0  0  0  0  0  0
   60.1899  161.8786   -2.4802 O   0  5  0  0  0  0  0  0  0  0  0  0
   61.0492  160.3721   -0.9890 O   0  0  0  0  0  0  0  0  0  0  0  0
   54.3301  157.1529   -3.1959 O   0  0  0  0  0  0  0  0  0  0  0  0
   57.7252  159.2579   -4.6416 H   0  0  0  0  0  0  0  0  0  0  0  0
   58.0214  157.6075   -4.0769 H   0  0  0  0  0  0  0  0  0  0  0  0
   54.6353  159.5139   -2.4424 H   0  0  0  0  0  0  0  0  0  0  0  0
   55.5998  160.4860   -3.5518 H   0  0  0  0  0  0  0  0  0  0  0  0
   58.4821  158.3150   -1.8199 H   0  0  0  0  0  0  0  0  0  0  0  0
   59.4872  159.2399   -2.9430 H   0  0  0  0  0  0  0  0  0  0  0  0
   56.1206  161.0823   -1.2279 H   0  0  0  0  0  0  0  0  0  0  0  0
   56.4775  159.3978   -0.8177 H   0  0  0  0  0  0  0  0  0  0  0  0
   49.6428  158.5105   -8.3816 H   0  0  0  0  0  0  0  0  0  0  0  0
   49.7797  159.6392   -7.0235 H   0  0  0  0  0  0  0  0  0  0  0  0
   50.0002  160.2186   -8.6846 H   0  0  0  0  0  0  0  0  0  0  0  0
   58.3315  161.7574   -0.5544 H   0  0  0  0  0  0  0  0  0  0  0  0
   58.7660  160.0860   -0.1483 H   0  0  0  0  0  0  0  0  0  0  0  0
   52.8993  156.6029   -4.9113 H   0  0  0  0  0  0  0  0  0  0  0  0
   52.7675  155.4986   -6.2788 H   0  0  0  0  0  0  0  0  0  0  0  0
   54.7816  154.9998   -4.9534 H   0  0  0  0  0  0  0  0  0  0  0  0
   55.2265  155.5007   -6.5878 H   0  0  0  0  0  0  0  0  0  0  0  0
   52.2384  159.9257   -7.5433 H   0  0  0  0  0  0  0  0  0  0  0  0
   52.0716  158.7487   -8.8808 H   0  0  0  0  0  0  0  0  0  0  0  0
   53.8541  158.3754   -6.4670 H   0  0  0  0  0  0  0  0  0  0  0  0
   53.6295  157.2445   -7.8345 H   0  0  0  0  0  0  0  0  0  0  0  0
   56.4194  157.2107   -5.5995 H   0  0  0  0  0  0  0  0  0  0  0  0
   51.5232  158.2334   -6.0329 H   0  0  0  0  0  0  0  0  0  0  0  0
   51.2964  157.1514   -7.2465 H   0  0  0  0  0  0  0  0  0  0  0  0
  1  8  1  0  0  0  0
  1 17  1  0  0  0  0
  1 18  2  0  0  0  0
  2 13  1  0  0  0  0
  2 15  1  0  0  0  0
  2 19  2  0  0  0  0
  3  5  1  0  0  0  0
  3 13  1  0  0  0  0
  4  6  1  0  0  0  0
  4 13  1  0  0  0  0
  5 14  1  0  0  0  0
  6 14  1  0  0  0  0
  7 11  1  0  0  0  0
  8 14  1  0  0  0  0
  9 10  1  0  0  0  0
  9 12  1  0  0  0  0
 10 15  1  0  0  0  0
 11 16  1  0  0  0  0
 12 16  1  0  0  0  0
  3 20  1  0  0  0  0
  3 21  1  0  0  0  0
  4 22  1  0  0  0  0
  4 23  1  0  0  0  0
  5 24  1  0  0  0  0
  5 25  1  0  0  0  0
  6 26  1  0  0  0  0
  6 27  1  0  0  0  0
  7 28  1  0  0  0  0
  7 29  1  0  0  0  0
  7 30  1  0  0  0  0
  8 31  1  0  0  0  0
  8 32  1  0  0  0  0
  9 33  1  0  0  0  0
  9 34  1  0  0  0  0
 10 35  1  0  0  0  0
 10 36  1  0  0  0  0
 11 37  1  0  0  0  0
 11 38  1  0  0  0  0
 12 39  1  0  0  0  0
 12 40  1  0  0  0  0
 15 41  1  0  0  0  0
 16 42  1  0  0  0  0
 16 43  1  0  0  0  0
M  CHG  2  16   1  17  -1
M  END
> <FRED Chemgauss4 score>
-5.228370

$$$$
C37468781	P55706687
  -OEChem-05122015083D

 23 23  0     1  0  0  0  0  0999 V2000
   55.1950  154.4017   -5.5097 C   0  0  0  0  0  0  0  0  0  0  0  0
   57.4389  155.2996   -6.1325 C   0  0  0  0  0  0  0  0  0  0  0  0
   57.6525  153.5274   -8.0645 C   0  0  0  0  0  0  0  0  0  0  0  0
   56.1673  154.6205   -6.6224 C   0  0  1  0  0  0  0  0  0  0  0  0
   53.2433  155.4109   -4.3457 C   0  0  0  0  0  0  0  0  0  0  0  0
   53.7644  156.0723   -3.0829 C   0  0  0  0  0  0  0  0  0  0  0  0
   56.5311  153.2972   -7.1498 N   0  0  0  0  0  0  0  0  0  0  0  0
   54.2740  155.4208   -5.3588 N   0  0  0  0  0  0  0  0  0  0  0  0
   55.2693  153.3821   -4.8340 O   0  0  0  0  0  0  0  0  0  0  0  0
   52.7358  156.0922   -2.1013 O   0  0  0  0  0  0  0  0  0  0  0  0
   58.6665  154.8669   -7.3878 S   0  0  0  0  0  0  0  0  0  0  0  0
   57.3199  156.3850   -6.0655 H   0  0  0  0  0  0  0  0  0  0  0  0
   57.7718  154.9254   -5.1585 H   0  0  0  0  0  0  0  0  0  0  0  0
   58.2487  152.6180   -8.1769 H   0  0  0  0  0  0  0  0  0  0  0  0
   57.2872  153.8284   -9.0519 H   0  0  0  0  0  0  0  0  0  0  0  0
   55.6700  155.2196   -7.4024 H   0  0  0  0  0  0  0  0  0  0  0  0
   52.9554  154.3714   -4.1594 H   0  0  0  0  0  0  0  0  0  0  0  0
   52.3787  155.9582   -4.7333 H   0  0  0  0  0  0  0  0  0  0  0  0
   54.0510  157.1075   -3.2929 H   0  0  0  0  0  0  0  0  0  0  0  0
   54.6291  155.5380   -2.6760 H   0  0  0  0  0  0  0  0  0  0  0  0
   55.7470  152.8804   -7.6496 H   0  0  0  0  0  0  0  0  0  0  0  0
   54.3239  156.2148   -5.9901 H   0  0  0  0  0  0  0  0  0  0  0  0
   53.1087  156.5209   -1.3143 H   0  0  0  0  0  0  0  0  0  0  0  0
  1  4  1  0  0  0  0
  1  8  1  0  0  0  0
  1  9  2  0  0  0  0
  2  4  1  0  0  0  0
  2 11  1  0  0  0  0
  3  7  1  0  0  0  0
  3 11  1  0  0  0  0
  4  7  1  0  0  0  0
  5  6  1  0  0  0  0
  5  8  1  0  0  0  0
  6 10  1  0  0  0  0
  2 12  1  0  0  0  0
  2 13  1  0  0  0  0
  3 14  1  0  0  0  0
  3 15  1  0  0  0  0
  4 16  1  0  0  0  0
  5 17  1  0  0  0  0
  5 18  1  0  0  0  0
  6 19  1  0  0  0  0
  6 20  1  0  0  0  0
  7 21  1  0  0  0  0
  8 22  1  0  0  0  0
 10 23  1  0  0  0  0
M  END
> <FRED Chemgauss4 score>
-5.224324

$$$$
C86451957	P135357207
  -OEChem-05122015083D

 31 31  0     1  0  0  0  0  0999 V2000
   56.3572  156.2781   -6.0654 C   0  0  0  0  0  0  0  0  0  0  0  0
   56.2103  154.0894   -5.9145 C   0  0  0  0  0  0  0  0  0  0  0  0
   55.5283  155.2395   -5.6007 C   0  0  0  0  0  0  0  0  0  0  0  0
   59.6716  154.4095   -7.3651 C   0  0  0  0  0  0  0  0  0  0  0  0
   52.6423  154.9168   -2.3113 C   0  0  0  0  0  0  0  0  0  0  0  0
   55.2627  158.0728   -2.6161 C   0  0  0  0  0  0  0  0  0  0  0  0
   58.4056  153.6376   -7.0350 C   0  0  0  0  0  0  0  0  0  0  0  0
   54.1802  155.3611   -4.9042 C   0  0  1  0  0  0  0  0  0  0  0  0
   54.2570  156.1298   -3.5604 C   0  0  0  0  0  0  0  0  0  0  0  0
   57.4802  155.8276   -6.6312 N   0  0  0  0  0  0  0  0  0  0  0  0
   57.3617  154.4932   -6.5240 N   0  0  0  0  0  0  0  0  0  0  0  0
   53.1557  155.9453   -5.7804 N   0  0  0  0  0  0  0  0  0  0  0  0
   52.9584  156.1463   -2.9500 O   0  0  0  0  0  0  0  0  0  0  0  0
   54.7372  157.4618   -3.7865 O   0  0  0  0  0  0  0  0  0  0  0  0
   56.1925  157.3452   -6.0157 H   0  0  0  0  0  0  0  0  0  0  0  0
   55.9808  153.0439   -5.7586 H   0  0  0  0  0  0  0  0  0  0  0  0
   59.4789  155.1829   -8.1162 H   0  0  0  0  0  0  0  0  0  0  0  0
   60.4361  153.7333   -7.7598 H   0  0  0  0  0  0  0  0  0  0  0  0
   60.0776  154.9022   -6.4755 H   0  0  0  0  0  0  0  0  0  0  0  0
   51.6472  154.9825   -1.8647 H   0  0  0  0  0  0  0  0  0  0  0  0
   53.3864  154.7043   -1.5395 H   0  0  0  0  0  0  0  0  0  0  0  0
   52.6532  154.1166   -3.0552 H   0  0  0  0  0  0  0  0  0  0  0  0
   55.6099  159.0810   -2.8550 H   0  0  0  0  0  0  0  0  0  0  0  0
   56.0908  157.4724   -2.2311 H   0  0  0  0  0  0  0  0  0  0  0  0
   54.4752  158.1304   -1.8610 H   0  0  0  0  0  0  0  0  0  0  0  0
   58.6083  152.8666   -6.2830 H   0  0  0  0  0  0  0  0  0  0  0  0
   58.0195  153.1295   -7.9259 H   0  0  0  0  0  0  0  0  0  0  0  0
   53.8379  154.3405   -4.6929 H   0  0  0  0  0  0  0  0  0  0  0  0
   54.9405  155.5987   -2.8826 H   0  0  0  0  0  0  0  0  0  0  0  0
   52.3481  156.3308   -5.3506 H   0  0  0  0  0  0  0  0  0  0  0  0
   53.2154  155.7497   -6.7520 H   0  0  0  0  0  0  0  0  0  0  0  0
  1  3  1  0  0  0  0
  1 10  2  0  0  0  0
  2  3  2  0  0  0  0
  2 11  1  0  0  0  0
  3  8  1  0  0  0  0
  4  7  1  0  0  0  0
  5 13  1  0  0  0  0
  6 14  1  0  0  0  0
  7 11  1  0  0  0  0
  8  9  1  0  0  0  0
  8 12  1  0  0  0  0
  9 13  1  0  0  0  0
  9 14  1  0  0  0  0
 10 11  1  0  0  0  0
  1 15  1  0  0  0  0
  2 16  1  0  0  0  0
  4 17  1  0  0  0  0
  4 18  1  0  0  0  0
  4 19  1  0  0  0  0
  5 20  1  0  0  0  0
  5 21  1  0  0  0  0
  5 22  1  0  0  0  0
  6 23  1  0  0  0  0
  6 24  1  0  0  0  0
  6 25  1  0  0  0  0
  7 26  1  0  0  0  0
  7 27  1  0  0  0  0
  8 28  1  0  0  0  0
  9 29  1  0  0  0  0
 12 30  1  0  0  0  0
 12 31  1  0  0  0  0
M  END
> <FRED Chemgauss4 score>
-5.221290

$$$$
C39053465	P59168638
  -OEChem-05122015083D

 14 14  0     0  0  0  0  0  0999 V2000
   54.8211  156.3366   -5.7354 C   0  0  0  0  0  0  0  0  0  0  0  0
   53.4890  156.4689   -5.6459 C   0  0  0  0  0  0  0  0  0  0  0  0
   55.6781  156.1148   -4.5545 C   0  0  0  0  0  0  0  0  0  0  0  0
   53.6017  156.1865   -3.2110 C   0  0  0  0  0  0  0  0  0  0  0  0
   52.9090  156.3922   -4.3954 N   0  0  0  0  0  0  0  0  0  0  0  0
   54.9828  156.0563   -3.3574 N   0  0  0  0  0  0  0  0  0  0  0  0
   52.7095  156.6747   -6.7514 N   0  0  0  0  0  0  0  0  0  0  0  0
   56.8944  155.9977   -4.6614 O   0  0  0  0  0  0  0  0  0  0  0  0
   53.0428  156.1234   -2.1152 O   0  0  0  0  0  0  0  0  0  0  0  0
   55.4687  156.3970   -6.9162 F   0  0  0  0  0  0  0  0  0  0  0  0
   51.8999  156.4940   -4.3382 H   0  0  0  0  0  0  0  0  0  0  0  0
   55.5254  155.9050   -2.5118 H   0  0  0  0  0  0  0  0  0  0  0  0
   53.1532  156.7258   -7.6403 H   0  0  0  0  0  0  0  0  0  0  0  0
   51.7266  156.7659   -6.6273 H   0  0  0  0  0  0  0  0  0  0  0  0
  1  2  2  0  0  0  0
  1  3  1  0  0  0  0
  1 10  1  0  0  0  0
  2  5  1  0  0  0  0
  2  7  1  0  0  0  0
  3  6  1  0  0  0  0
  3  8  2  0  0  0  0
  4  5  1  0  0  0  0
  4  6  1  0  0  0  0
  4  9  2  0  0  0  0
  5 11  1  0  0  0  0
  6 12  1  0  0  0  0
  7 13  1  0  0  0  0
  7 14  1  0  0  0  0
M  END
> <FRED Chemgauss4 score>
-5.218533

$$$$
C88037184	P137697140
  -OEChem-05122015083D

 25 26  0     1  0  0  0  0  0999 V2000
   56.2558  159.2998   -0.5494 C   0  0  0  0  0  0  0  0  0  0  0  0
   57.4805  159.9669   -0.5131 C   0  0  0  0  0  0  0  0  0  0  0  0
   55.8050  158.8552   -1.7988 C   0  0  0  0  0  0  0  0  0  0  0  0
   58.1816  160.1543   -1.7002 C   0  0  0  0  0  0  0  0  0  0  0  0
   56.6058  159.1099   -2.9036 C   0  0  0  0  0  0  0  0  0  0  0  0
   54.7745  158.0293   -3.4746 C   0  0  0  0  0  0  0  0  0  0  0  0
   59.4927  160.8715   -1.6426 C   0  0  0  0  0  0  0  0  0  0  0  0
   54.4437  156.7024   -5.6051 C   0  0  0  0  0  0  0  0  0  0  0  0
   53.8063  157.3632   -4.3655 C   0  0  1  0  0  0  0  0  0  0  0  0
   54.6675  158.1812   -2.1715 N   0  0  0  0  0  0  0  0  0  0  0  0
   57.7894  159.7444   -2.9311 N   0  0  0  0  0  0  0  0  0  0  0  0
   55.9309  158.5748   -3.9642 N   0  0  0  0  0  0  0  0  0  0  0  0
   53.0037  156.3526   -3.6838 N   0  0  0  0  0  0  0  0  0  0  0  0
   55.6813  159.1349    0.3554 H   0  0  0  0  0  0  0  0  0  0  0  0
   57.8704  160.3298    0.4327 H   0  0  0  0  0  0  0  0  0  0  0  0
   60.3076  160.1569   -1.4837 H   0  0  0  0  0  0  0  0  0  0  0  0
   59.6831  161.4204   -2.5722 H   0  0  0  0  0  0  0  0  0  0  0  0
   59.5051  161.6054   -0.8282 H   0  0  0  0  0  0  0  0  0  0  0  0
   55.1996  155.9703   -5.3003 H   0  0  0  0  0  0  0  0  0  0  0  0
   53.6985  156.1849   -6.2197 H   0  0  0  0  0  0  0  0  0  0  0  0
   54.9314  157.4443   -6.2474 H   0  0  0  0  0  0  0  0  0  0  0  0
   53.0572  158.0862   -4.7513 H   0  0  0  0  0  0  0  0  0  0  0  0
   56.2319  158.5823   -4.9298 H   0  0  0  0  0  0  0  0  0  0  0  0
   52.6026  155.6226   -4.2324 H   0  0  0  0  0  0  0  0  0  0  0  0
   52.7170  156.5343   -2.7460 H   0  0  0  0  0  0  0  0  0  0  0  0
  1  2  2  0  0  0  0
  1  3  1  0  0  0  0
  2  4  1  0  0  0  0
  3  5  2  0  0  0  0
  3 10  1  0  0  0  0
  4  7  1  0  0  0  0
  4 11  2  0  0  0  0
  5 11  1  0  0  0  0
  5 12  1  0  0  0  0
  6  9  1  0  0  0  0
  6 10  2  0  0  0  0
  6 12  1  0  0  0  0
  8  9  1  0  0  0  0
  9 13  1  0  0  0  0
  1 14  1  0  0  0  0
  2 15  1  0  0  0  0
  7 16  1  0  0  0  0
  7 17  1  0  0  0  0
  7 18  1  0  0  0  0
  8 19  1  0  0  0  0
  8 20  1  0  0  0  0
  8 21  1  0  0  0  0
  9 22  1  0  0  0  0
 12 23  1  0  0  0  0
 13 24  1  0  0  0  0
 13 25  1  0  0  0  0
M  END
> <FRED Chemgauss4 score>
-5.217808

$$$$
C87588455	P137001872
  -OEChem-05122015083D

 29 29  0     1  0  0  0  0  0999 V2000
   54.3254  156.7582   -5.0170 C   0  0  0  0  0  0  0  0  0  0  0  0
   53.8331  155.7413   -3.1642 C   0  0  0  0  0  0  0  0  0  0  0  0
   59.5787  154.7515   -5.8531 C   0  0  0  0  0  0  0  0  0  0  0  0
   56.2644  157.1822   -6.6344 C   0  0  0  0  0  0  0  0  0  0  0  0
   57.1243  156.0283   -6.1245 C   0  0  0  0  0  0  0  0  0  0  0  0
   54.7426  156.9841   -6.4581 C   0  0  2  0  0  0  0  0  0  0  0  0
   54.0035  157.6778   -4.1355 N   0  0  0  0  0  0  0  0  0  0  0  0
   53.6902  157.0309   -2.9568 N   0  0  0  0  0  0  0  0  0  0  0  0
   54.2320  155.5243   -4.4482 N   0  0  0  0  0  0  0  0  0  0  0  0
   53.6432  154.7063   -2.3146 N   0  0  0  0  0  0  0  0  0  0  0  0
   54.0488  158.1518   -7.0190 N   0  0  0  0  0  0  0  0  0  0  0  0
   54.4972  154.2826   -5.0708 N   0  0  0  0  0  0  0  0  0  0  0  0
   59.0714  156.3816   -7.8324 O   0  0  0  0  0  0  0  0  0  0  0  0
   59.3059  157.3275   -5.5039 O   0  0  0  0  0  0  0  0  0  0  0  0
   58.8482  156.2783   -6.3997 S   0  0  0  0  0  0  0  0  0  0  0  0
   60.6592  154.8185   -5.9892 H   0  0  0  0  0  0  0  0  0  0  0  0
   59.3340  154.6106   -4.7992 H   0  0  0  0  0  0  0  0  0  0  0  0
   59.1673  153.9386   -6.4534 H   0  0  0  0  0  0  0  0  0  0  0  0
   56.5022  157.3404   -7.6943 H   0  0  0  0  0  0  0  0  0  0  0  0
   56.5687  158.0997   -6.1124 H   0  0  0  0  0  0  0  0  0  0  0  0
   56.9858  155.8425   -5.0564 H   0  0  0  0  0  0  0  0  0  0  0  0
   56.8645  155.1107   -6.6623 H   0  0  0  0  0  0  0  0  0  0  0  0
   54.4356  156.1207   -7.0601 H   0  0  0  0  0  0  0  0  0  0  0  0
   53.3882  154.8500   -1.3277 H   0  0  0  0  0  0  0  0  0  0  0  0
   53.8362  153.7329   -2.5889 H   0  0  0  0  0  0  0  0  0  0  0  0
   53.1158  158.3182   -6.7236 H   0  0  0  0  0  0  0  0  0  0  0  0
   54.4590  158.5958   -7.8065 H   0  0  0  0  0  0  0  0  0  0  0  0
   54.2920  154.2823   -6.0752 H   0  0  0  0  0  0  0  0  0  0  0  0
   53.9311  153.5173   -4.6896 H   0  0  0  0  0  0  0  0  0  0  0  0
  1  6  1  0  0  0  0
  1  7  2  0  0  0  0
  1  9  1  0  0  0  0
  2  8  2  0  0  0  0
  2  9  1  0  0  0  0
  2 10  1  0  0  0  0
  3 15  1  0  0  0  0
  4  5  1  0  0  0  0
  4  6  1  0  0  0  0
  5 15  1  0  0  0  0
  6 11  1  0  0  0  0
  7  8  1  0  0  0  0
  9 12  1  0  0  0  0
 13 15  2  0  0  0  0
 14 15  2  0  0  0  0
  3 16  1  0  0  0  0
  3 17  1  0  0  0  0
  3 18  1  0  0  0  0
  4 19  1  0  0  0  0
  4 20  1  0  0  0  0
  5 21  1  0  0  0  0
  5 22  1  0  0  0  0
  6 23  1  0  0  0  0
 10 24  1  0  0  0  0
 10 25  1  0  0  0  0
 11 26  1  0  0  0  0
 11 27  1  0  0  0  0
 12 28  1  0  0  0  0
 12 29  1  0  0  0  0
M  END
> <FRED Chemgauss4 score>
-5.213965

$$$$
C78564008	P122600660
  -OEChem-05122015083D

 40 42  0     0  0  0  0  0  0999 V2000
   56.7325  155.9393   -4.5636 C   0  0  0  0  0  0  0  0  0  0  0  0
   56.6955  156.9463   -3.5976 C   0  0  0  0  0  0  0  0  0  0  0  0
   54.3202  157.2053   -3.9502 C   0  0  0  0  0  0  0  0  0  0  0  0
   58.2991  162.1123   -2.2578 C   0  0  0  0  0  0  0  0  0  0  0  0
   55.5575  155.5650   -5.2247 C   0  0  0  0  0  0  0  0  0  0  0  0
   55.4911  157.5785   -3.2913 C   0  0  0  0  0  0  0  0  0  0  0  0
   54.3588  156.1972   -4.9170 C   0  0  0  0  0  0  0  0  0  0  0  0
   57.0767  161.7325   -1.7442 C   0  0  0  0  0  0  0  0  0  0  0  0
   56.5377  163.7471   -2.4231 C   0  0  0  0  0  0  0  0  0  0  0  0
   55.5743  154.5012   -6.2482 C   0  0  0  0  0  0  0  0  0  0  0  0
   53.1187  154.8466   -6.5416 C   0  0  0  0  0  0  0  0  0  0  0  0
   55.4566  158.6277   -2.2849 C   0  0  0  0  0  0  0  0  0  0  0  0
   55.7164  165.3318   -4.1840 C   0  0  0  0  0  0  0  0  0  0  0  0
   54.3111  153.1514   -7.8847 C   0  0  0  0  0  0  0  0  0  0  0  0
   56.7669  160.4098   -1.1050 C   0  0  0  0  0  0  0  0  0  0  0  0
   55.7451  164.9654   -2.6975 C   0  0  0  0  0  0  0  0  0  0  0  0
   56.0656  162.6688   -1.8378 N   0  0  0  0  0  0  0  0  0  0  0  0
   53.1831  155.8276   -5.5736 N   0  0  0  0  0  0  0  0  0  0  0  0
   54.3357  154.2000   -6.8586 N   0  0  0  0  0  0  0  0  0  0  0  0
   56.6361  159.3539   -2.0832 N   0  0  0  0  0  0  0  0  0  0  0  0
   56.6432  153.9510   -6.5042 O   0  0  0  0  0  0  0  0  0  0  0  0
   54.4210  158.8400   -1.6294 O   0  0  0  0  0  0  0  0  0  0  0  0
   51.6114  154.5311   -7.2298 S   0  0  0  0  0  0  0  0  0  0  0  0
   58.1891  163.7036   -2.8877 S   0  0  0  0  0  0  0  0  0  0  0  0
   57.6831  155.4622   -4.7854 H   0  0  0  0  0  0  0  0  0  0  0  0
   57.6142  157.2302   -3.0902 H   0  0  0  0  0  0  0  0  0  0  0  0
   53.3807  157.6987   -3.7111 H   0  0  0  0  0  0  0  0  0  0  0  0
   59.2227  161.5520   -2.2943 H   0  0  0  0  0  0  0  0  0  0  0  0
   56.7324  165.4573   -4.5734 H   0  0  0  0  0  0  0  0  0  0  0  0
   55.1718  166.2666   -4.3500 H   0  0  0  0  0  0  0  0  0  0  0  0
   55.2271  164.5456   -4.7689 H   0  0  0  0  0  0  0  0  0  0  0  0
   54.1193  152.1790   -7.4237 H   0  0  0  0  0  0  0  0  0  0  0  0
   55.2712  153.1104   -8.4063 H   0  0  0  0  0  0  0  0  0  0  0  0
   53.5238  153.3559   -8.6153 H   0  0  0  0  0  0  0  0  0  0  0  0
   57.5594  160.1244   -0.4046 H   0  0  0  0  0  0  0  0  0  0  0  0
   55.8321  160.4574   -0.5367 H   0  0  0  0  0  0  0  0  0  0  0  0
   54.7032  164.8483   -2.3448 H   0  0  0  0  0  0  0  0  0  0  0  0
   56.1384  165.8301   -2.1305 H   0  0  0  0  0  0  0  0  0  0  0  0
   52.3253  156.3113   -5.3223 H   0  0  0  0  0  0  0  0  0  0  0  0
   57.4707  159.0980   -2.6005 H   0  0  0  0  0  0  0  0  0  0  0  0
  1  2  2  0  0  0  0
  1  5  1  0  0  0  0
  2  6  1  0  0  0  0
  3  6  2  0  0  0  0
  3  7  1  0  0  0  0
  4  8  2  0  0  0  0
  4 24  1  0  0  0  0
  5  7  2  0  0  0  0
  5 10  1  0  0  0  0
  6 12  1  0  0  0  0
  7 18  1  0  0  0  0
  8 15  1  0  0  0  0
  8 17  1  0  0  0  0
  9 16  1  0  0  0  0
  9 17  2  0  0  0  0
  9 24  1  0  0  0  0
 10 19  1  0  0  0  0
 10 21  2  0  0  0  0
 11 18  1  0  0  0  0
 11 19  1  0  0  0  0
 11 23  2  0  0  0  0
 12 20  1  0  0  0  0
 12 22  2  0  0  0  0
 13 16  1  0  0  0  0
 14 19  1  0  0  0  0
 15 20  1  0  0  0  0
  1 25  1  0  0  0  0
  2 26  1  0  0  0  0
  3 27  1  0  0  0  0
  4 28  1  0  0  0  0
 13 29  1  0  0  0  0
 13 30  1  0  0  0  0
 13 31  1  0  0  0  0
 14 32  1  0  0  0  0
 14 33  1  0  0  0  0
 14 34  1  0  0  0  0
 15 35  1  0  0  0  0
 15 36  1  0  0  0  0
 16 37  1  0  0  0  0
 16 38  1  0  0  0  0
 18 39  1  0  0  0  0
 20 40  1  0  0  0  0
M  END
> <FRED Chemgauss4 score>
-5.208600

$$$$
C80262826	P125353148
  -OEChem-05122015083D

 34 35  0     1  0  0  0  0  0999 V2000
   55.4860  159.3479   -4.1628 C   0  0  0  0  0  0  0  0  0  0  0  0
   56.3897  159.9142   -3.2639 C   0  0  0  0  0  0  0  0  0  0  0  0
   55.8813  158.1801   -1.6603 C   0  0  0  0  0  0  0  0  0  0  0  0
   56.4449  154.2464   -6.0946 C   0  0  0  0  0  0  0  0  0  0  0  0
   55.3940  153.4831   -5.6311 C   0  0  0  0  0  0  0  0  0  0  0  0
   54.7798  158.1977   -3.8105 C   0  0  0  0  0  0  0  0  0  0  0  0
   54.9775  157.6138   -2.5592 C   0  0  0  0  0  0  0  0  0  0  0  0
   56.5874  159.3303   -2.0127 C   0  0  0  0  0  0  0  0  0  0  0  0
   54.9271  155.8236   -5.9575 C   0  0  0  0  0  0  0  0  0  0  0  0
   53.0685  157.2010   -6.9810 C   0  0  0  0  0  0  0  0  0  0  0  0
   59.2663  159.2424   -1.2579 C   0  0  0  0  0  0  0  0  0  0  0  0
   54.2638  157.1820   -6.0304 C   0  0  1  0  0  0  0  0  0  0  0  0
   56.1790  155.5887   -6.2828 N   0  0  0  0  0  0  0  0  0  0  0  0
   54.2727  156.4488   -2.1822 N   0  0  0  0  0  0  0  0  0  0  0  0
   53.8691  157.6409   -4.7360 N   0  0  0  0  0  0  0  0  0  0  0  0
   57.8536  161.4509   -1.2162 O   0  0  0  0  0  0  0  0  0  0  0  0
   57.3514  159.6429    0.4646 O   0  0  0  0  0  0  0  0  0  0  0  0
   54.0123  154.4761   -5.4168 S   0  0  0  0  0  0  0  0  0  0  0  0
   57.7195  160.0387   -0.8880 S   0  0  0  0  0  0  0  0  0  0  0  0
   55.3400  159.8119   -5.1350 H   0  0  0  0  0  0  0  0  0  0  0  0
   56.9340  160.8107   -3.5484 H   0  0  0  0  0  0  0  0  0  0  0  0
   56.0360  157.7254   -0.6843 H   0  0  0  0  0  0  0  0  0  0  0  0
   57.4353  153.8698   -6.3128 H   0  0  0  0  0  0  0  0  0  0  0  0
   55.3736  152.4247   -5.4131 H   0  0  0  0  0  0  0  0  0  0  0  0
   52.3041  156.4814   -6.6680 H   0  0  0  0  0  0  0  0  0  0  0  0
   52.6099  158.1960   -7.0013 H   0  0  0  0  0  0  0  0  0  0  0  0
   53.3589  156.9595   -8.0097 H   0  0  0  0  0  0  0  0  0  0  0  0
   60.0280  159.6407   -0.5858 H   0  0  0  0  0  0  0  0  0  0  0  0
   59.1458  158.1687   -1.1059 H   0  0  0  0  0  0  0  0  0  0  0  0
   59.5234  159.4554   -2.2965 H   0  0  0  0  0  0  0  0  0  0  0  0
   54.9916  157.9184   -6.3930 H   0  0  0  0  0  0  0  0  0  0  0  0
   54.4698  156.0268   -1.2986 H   0  0  0  0  0  0  0  0  0  0  0  0
   53.6610  156.0165   -2.8429 H   0  0  0  0  0  0  0  0  0  0  0  0
   52.9123  157.5783   -4.4469 H   0  0  0  0  0  0  0  0  0  0  0  0
  1  2  2  0  0  0  0
  1  6  1  0  0  0  0
  2  8  1  0  0  0  0
  3  7  1  0  0  0  0
  3  8  2  0  0  0  0
  4  5  2  0  0  0  0
  4 13  1  0  0  0  0
  5 18  1  0  0  0  0
  6  7  2  0  0  0  0
  6 15  1  0  0  0  0
  7 14  1  0  0  0  0
  8 19  1  0  0  0  0
  9 12  1  0  0  0  0
  9 13  2  0  0  0  0
  9 18  1  0  0  0  0
 10 12  1  0  0  0  0
 11 19  1  0  0  0  0
 12 15  1  0  0  0  0
 16 19  2  0  0  0  0
 17 19  2  0  0  0  0
  1 20  1  0  0  0  0
  2 21  1  0  0  0  0
  3 22  1  0  0  0  0
  4 23  1  0  0  0  0
  5 24  1  0  0  0  0
 10 25  1  0  0  0  0
 10 26  1  0  0  0  0
 10 27  1  0  0  0  0
 11 28  1  0  0  0  0
 11 29  1  0  0  0  0
 11 30  1  0  0  0  0
 12 31  1  0  0  0  0
 14 32  1  0  0  0  0
 14 33  1  0  0  0  0
 15 34  1  0  0  0  0
M  END
> <FRED Chemgauss4 score>
-5.202807

$$$$
C91671604	P143506818
  -OEChem-05122015083D

 39 40  0     1  0  0  0  0  0999 V2000
   55.5968  153.8802   -5.2013 C   0  0  0  0  0  0  0  0  0  0  0  0
   56.7698  153.9980   -5.9385 C   0  0  0  0  0  0  0  0  0  0  0  0
   54.8525  155.0163   -4.9034 C   0  0  0  0  0  0  0  0  0  0  0  0
   57.1521  155.2642   -6.3511 C   0  0  0  0  0  0  0  0  0  0  0  0
   55.3207  156.2370   -5.3622 C   0  0  0  0  0  0  0  0  0  0  0  0
   53.6246  154.8821   -4.1319 C   0  0  0  0  0  0  0  0  0  0  0  0
   58.8649  159.7831   -3.5128 C   0  0  0  0  0  0  0  0  0  0  0  0
   56.5256  160.3028   -3.7642 C   0  0  0  0  0  0  0  0  0  0  0  0
   58.5547  158.3336   -3.8786 C   0  0  0  0  0  0  0  0  0  0  0  0
   56.2614  158.8331   -4.1187 C   0  0  1  0  0  0  0  0  0  0  0  0
   58.4056  155.4279   -7.1441 C   0  0  0  0  0  0  0  0  0  0  0  0
   57.4828  160.0954   -1.5350 C   0  0  0  0  0  0  0  0  0  0  0  0
   55.1008  158.7082   -5.0973 C   0  0  0  0  0  0  0  0  0  0  0  0
   56.4553  156.3908   -6.0810 N   0  0  0  0  0  0  0  0  0  0  0  0
   57.7174  160.4855   -2.9229 N   0  0  1  0  0  0  0  0  0  0  0  0
   52.6308  154.0942   -4.6645 N   0  0  0  0  0  0  0  0  0  0  0  0
   54.5789  157.3818   -5.0668 N   0  0  0  0  0  0  0  0  0  0  0  0
   57.4202  158.2701   -4.7430 O   0  0  0  0  0  0  0  0  0  0  0  0
   53.4390  155.6321   -2.6468 S   0  0  0  0  0  0  0  0  0  0  0  0
   55.2732  152.8988   -4.8647 H   0  0  0  0  0  0  0  0  0  0  0  0
   57.3588  153.1194   -6.1783 H   0  0  0  0  0  0  0  0  0  0  0  0
   59.7192  159.7936   -2.8048 H   0  0  0  0  0  0  0  0  0  0  0  0
   59.2109  160.3206   -4.4223 H   0  0  0  0  0  0  0  0  0  0  0  0
   56.6326  160.8974   -4.6981 H   0  0  0  0  0  0  0  0  0  0  0  0
   55.6353  160.7113   -3.2418 H   0  0  0  0  0  0  0  0  0  0  0  0
   59.4040  157.8948   -4.4116 H   0  0  0  0  0  0  0  0  0  0  0  0
   58.3712  157.7218   -2.9869 H   0  0  0  0  0  0  0  0  0  0  0  0
   56.0253  158.2546   -3.2179 H   0  0  0  0  0  0  0  0  0  0  0  0
   58.1913  155.3476   -8.2165 H   0  0  0  0  0  0  0  0  0  0  0  0
   58.8720  156.4029   -6.9538 H   0  0  0  0  0  0  0  0  0  0  0  0
   59.1468  154.6633   -6.8784 H   0  0  0  0  0  0  0  0  0  0  0  0
   56.6235  160.6379   -1.1323 H   0  0  0  0  0  0  0  0  0  0  0  0
   58.3607  160.3239   -0.9246 H   0  0  0  0  0  0  0  0  0  0  0  0
   57.2823  159.0224   -1.4727 H   0  0  0  0  0  0  0  0  0  0  0  0
   55.4581  158.9270   -6.0966 H   0  0  0  0  0  0  0  0  0  0  0  0
   54.3201  159.4038   -4.8149 H   0  0  0  0  0  0  0  0  0  0  0  0
   52.7253  153.6220   -5.5581 H   0  0  0  0  0  0  0  0  0  0  0  0
   51.7502  153.9664   -4.1768 H   0  0  0  0  0  0  0  0  0  0  0  0
   53.5985  157.2410   -4.8125 H   0  0  0  0  0  0  0  0  0  0  0  0
  1  2  2  0  0  0  0
  1  3  1  0  0  0  0
  2  4  1  0  0  0  0
  3  5  2  0  0  0  0
  3  6  1  0  0  0  0
  4 11  1  0  0  0  0
  4 14  2  0  0  0  0
  5 14  1  0  0  0  0
  5 17  1  0  0  0  0
  6 16  1  0  0  0  0
  6 19  2  0  0  0  0
  7  9  1  0  0  0  0
  7 15  1  0  0  0  0
  8 10  1  0  0  0  0
  8 15  1  0  0  0  0
  9 18  1  0  0  0  0
 10 13  1  0  0  0  0
 10 18  1  0  0  0  0
 12 15  1  0  0  0  0
 13 17  1  0  0  0  0
  1 20  1  0  0  0  0
  2 21  1  0  0  0  0
  7 22  1  0  0  0  0
  7 23  1  0  0  0  0
  8 24  1  0  0  0  0
  8 25  1  0  0  0  0
  9 26  1  0  0  0  0
  9 27  1  0  0  0  0
 10 28  1  0  0  0  0
 11 29  1  0  0  0  0
 11 30  1  0  0  0  0
 11 31  1  0  0  0  0
 12 32  1  0  0  0  0
 12 33  1  0  0  0  0
 12 34  1  0  0  0  0
 13 35  1  0  0  0  0
 13 36  1  0  0  0  0
 16 37  1  0  0  0  0
 16 38  1  0  0  0  0
 17 39  1  0  0  0  0
M  END
> <FRED Chemgauss4 score>
-5.199125

$$$$
C39941433	P60608795
  -OEChem-05122015083D

 22 23  0     1  0  0  0  0  0999 V2000
   55.3961  152.7654   -7.8366 C   0  0  0  0  0  0  0  0  0  0  0  0
   54.3416  153.4102   -7.1868 C   0  0  0  0  0  0  0  0  0  0  0  0
   56.7277  153.1113   -7.5575 C   0  0  0  0  0  0  0  0  0  0  0  0
   54.6440  154.3909   -6.2557 C   0  0  0  0  0  0  0  0  0  0  0  0
   55.9738  154.7321   -5.9744 C   0  0  0  0  0  0  0  0  0  0  0  0
   57.0246  154.1057   -6.6231 C   0  0  0  0  0  0  0  0  0  0  0  0
   56.0447  155.8313   -4.9620 C   0  0  0  0  0  0  0  0  0  0  0  0
   53.6922  155.2381   -5.4640 C   0  0  1  0  0  0  0  0  0  0  0  0
   54.6316  155.7648   -4.3539 C   0  0  2  0  0  0  0  0  0  0  0  0
   53.1274  156.2806   -6.2808 N   0  0  0  0  0  0  0  0  0  0  0  0
   54.2253  157.0180   -3.8357 O   0  0  0  0  0  0  0  0  0  0  0  0
   58.2947  154.4384   -6.3635 F   0  0  0  0  0  0  0  0  0  0  0  0
   55.1861  151.9823   -8.5598 H   0  0  0  0  0  0  0  0  0  0  0  0
   53.3156  153.1400   -7.4091 H   0  0  0  0  0  0  0  0  0  0  0  0
   57.5355  152.5941   -8.0685 H   0  0  0  0  0  0  0  0  0  0  0  0
   56.8083  155.5893   -4.2156 H   0  0  0  0  0  0  0  0  0  0  0  0
   56.2523  156.7987   -5.4296 H   0  0  0  0  0  0  0  0  0  0  0  0
   52.9296  154.6067   -5.0599 H   0  0  0  0  0  0  0  0  0  0  0  0
   54.6243  155.0516   -3.4741 H   0  0  0  0  0  0  0  0  0  0  0  0
   52.7894  157.1062   -5.8300 H   0  0  0  0  0  0  0  0  0  0  0  0
   52.9045  156.0698   -7.2322 H   0  0  0  0  0  0  0  0  0  0  0  0
   54.8700  157.2508   -3.1516 H   0  0  0  0  0  0  0  0  0  0  0  0
  1  2  1  0  0  0  0
  1  3  2  0  0  0  0
  2  4  2  0  0  0  0
  3  6  1  0  0  0  0
  4  5  1  0  0  0  0
  4  8  1  0  0  0  0
  5  6  2  0  0  0  0
  5  7  1  0  0  0  0
  6 12  1  0  0  0  0
  7  9  1  0  0  0  0
  8  9  1  0  0  0  0
  8 10  1  0  0  0  0
  9 11  1  0  0  0  0
  1 13  1  0  0  0  0
  2 14  1  0  0  0  0
  3 15  1  0  0  0  0
  7 16  1  0  0  0  0
  7 17  1  0  0  0  0
  8 18  1  0  0  0  0
  9 19  1  0  0  0  0
 10 20  1  0  0  0  0
 10 21  1  0  0  0  0
 11 22  1  0  0  0  0
M  END
> <FRED Chemgauss4 score>
-5.199034

$$$$
C34264772	P117567526
  -OEChem-05122015083D

 19 18  0     1  0  0  0  0  0999 V2000
   55.5312  156.1877   -6.0386 C   0  0  0  0  0  0  0  0  0  0  0  0
   54.4170  155.4574   -6.1625 C   0  0  0  0  0  0  0  0  0  0  0  0
   53.4458  157.1987   -3.4779 C   0  0  0  0  0  0  0  0  0  0  0  0
   53.5086  155.1138   -5.0162 C   0  0  1  0  0  0  0  0  0  0  0  0
   53.9212  155.7559   -3.6763 C   0  0  2  0  0  0  0  0  0  0  0  0
   54.2014  157.8879   -2.4412 N   0  0  0  0  0  0  0  0  0  0  0  0
   52.1967  155.5661   -5.3596 O   0  0  0  0  0  0  0  0  0  0  0  0
   53.4057  154.9787   -2.5912 O   0  0  0  0  0  0  0  0  0  0  0  0
   56.1599  156.4132   -6.8927 H   0  0  0  0  0  0  0  0  0  0  0  0
   55.8293  156.5743   -5.0702 H   0  0  0  0  0  0  0  0  0  0  0  0
   54.1459  155.0920   -7.1499 H   0  0  0  0  0  0  0  0  0  0  0  0
   53.5463  157.7451   -4.4235 H   0  0  0  0  0  0  0  0  0  0  0  0
   52.3775  157.2228   -3.2347 H   0  0  0  0  0  0  0  0  0  0  0  0
   53.4426  154.0258   -4.8989 H   0  0  0  0  0  0  0  0  0  0  0  0
   55.0141  155.7190   -3.5820 H   0  0  0  0  0  0  0  0  0  0  0  0
   53.7695  158.6576   -1.9735 H   0  0  0  0  0  0  0  0  0  0  0  0
   55.1816  157.7084   -2.3718 H   0  0  0  0  0  0  0  0  0  0  0  0
   51.9506  155.0964   -6.1701 H   0  0  0  0  0  0  0  0  0  0  0  0
   53.7167  154.0732   -2.7352 H   0  0  0  0  0  0  0  0  0  0  0  0
  1  2  2  0  0  0  0
  2  4  1  0  0  0  0
  3  5  1  0  0  0  0
  3  6  1  0  0  0  0
  4  5  1  0  0  0  0
  4  7  1  0  0  0  0
  5  8  1  0  0  0  0
  1  9  1  0  0  0  0
  1 10  1  0  0  0  0
  2 11  1  0  0  0  0
  3 12  1  0  0  0  0
  3 13  1  0  0  0  0
  4 14  1  0  0  0  0
  5 15  1  0  0  0  0
  6 16  1  0  0  0  0
  6 17  1  0  0  0  0
  7 18  1  0  0  0  0
  8 19  1  0  0  0  0
M  END
> <FRED Chemgauss4 score>
-5.195505

$$$$
C53129455	P79683186
  -OEChem-05122015083D

 27 28  0     1  0  0  0  0  0999 V2000
   59.5328  155.4567   -7.1028 C   0  0  0  0  0  0  0  0  0  0  0  0
   59.0609  157.7840   -7.4848 C   0  0  0  0  0  0  0  0  0  0  0  0
   59.9046  155.3691   -8.4347 C   0  0  0  0  0  0  0  0  0  0  0  0
   59.4541  157.5921   -8.7995 C   0  0  0  0  0  0  0  0  0  0  0  0
   59.1041  156.6908   -6.6267 C   0  0  0  0  0  0  0  0  0  0  0  0
   57.3039  156.3094   -4.9037 C   0  0  0  0  0  0  0  0  0  0  0  0
   55.4282  156.1213   -4.0517 C   0  0  0  0  0  0  0  0  0  0  0  0
   52.9413  155.6668   -4.0827 C   0  0  0  0  0  0  0  0  0  0  0  0
   58.6916  156.8410   -5.2018 C   0  0  0  0  0  0  0  0  0  0  0  0
   54.1647  156.2028   -3.3065 C   0  0  2  0  0  0  0  0  0  0  0  0
   59.8762  156.4087   -9.2984 N   0  0  0  0  0  0  0  0  0  0  0  0
   56.4877  156.8863   -3.9748 N   0  0  0  0  0  0  0  0  0  0  0  0
   56.8025  155.2444   -5.5363 N   0  0  0  0  0  0  0  0  0  0  0  0
   53.8674  157.5548   -2.8371 N   0  0  0  0  0  0  0  0  0  0  0  0
   55.5324  155.1161   -4.9600 O   0  0  0  0  0  0  0  0  0  0  0  0
   59.5770  154.5846   -6.4593 H   0  0  0  0  0  0  0  0  0  0  0  0
   58.7315  158.7591   -7.1430 H   0  0  0  0  0  0  0  0  0  0  0  0
   60.2452  154.4286   -8.8554 H   0  0  0  0  0  0  0  0  0  0  0  0
   59.4387  158.4131   -9.5087 H   0  0  0  0  0  0  0  0  0  0  0  0
   52.8262  156.2069   -5.0289 H   0  0  0  0  0  0  0  0  0  0  0  0
   53.0349  154.5990   -4.3107 H   0  0  0  0  0  0  0  0  0  0  0  0
   52.0175  155.7930   -3.5070 H   0  0  0  0  0  0  0  0  0  0  0  0
   59.4158  156.3414   -4.5343 H   0  0  0  0  0  0  0  0  0  0  0  0
   58.7410  157.9005   -4.8937 H   0  0  0  0  0  0  0  0  0  0  0  0
   54.2102  155.6075   -2.3681 H   0  0  0  0  0  0  0  0  0  0  0  0
   54.6270  158.1195   -2.5260 H   0  0  0  0  0  0  0  0  0  0  0  0
   52.9161  157.7875   -2.6537 H   0  0  0  0  0  0  0  0  0  0  0  0
  1  3  2  0  0  0  0
  1  5  1  0  0  0  0
  2  4  1  0  0  0  0
  2  5  2  0  0  0  0
  3 11  1  0  0  0  0
  4 11  2  0  0  0  0
  5  9  1  0  0  0  0
  6  9  1  0  0  0  0
  6 12  1  0  0  0  0
  6 13  2  0  0  0  0
  7 10  1  0  0  0  0
  7 12  2  0  0  0  0
  7 15  1  0  0  0  0
  8 10  1  0  0  0  0
 10 14  1  0  0  0  0
 13 15  1  0  0  0  0
  1 16  1  0  0  0  0
  2 17  1  0  0  0  0
  3 18  1  0  0  0  0
  4 19  1  0  0  0  0
  8 20  1  0  0  0  0
  8 21  1  0  0  0  0
  8 22  1  0  0  0  0
  9 23  1  0  0  0  0
  9 24  1  0  0  0  0
 10 25  1  0  0  0  0
 14 26  1  0  0  0  0
 14 27  1  0  0  0  0
M  END
> <FRED Chemgauss4 score>
-5.193616

$$$$
C85353307	P133560752
  -OEChem-05122015083D

 27 28  0     1  0  0  0  0  0999 V2000
   53.0359  154.9970   -3.8249 C   0  0  0  0  0  0  0  0  0  0  0  0
   54.2365  156.7480   -3.3758 C   0  0  0  0  0  0  0  0  0  0  0  0
   56.0976  157.9719   -2.1002 C   0  0  0  0  0  0  0  0  0  0  0  0
   54.6244  159.7656   -2.3771 C   0  0  0  0  0  0  0  0  0  0  0  0
   55.3726  157.7587   -3.4291 C   0  0  2  0  0  0  0  0  0  0  0  0
   54.9493  159.1936   -3.7466 C   0  0  1  0  0  0  0  0  0  0  0  0
   55.0314  156.0060   -6.4425 C   0  0  0  0  0  0  0  0  0  0  0  0
   55.1488  155.2137   -5.1517 C   0  0  0  0  0  0  0  0  0  0  0  0
   52.4117  155.6737   -2.8874 N   0  0  0  0  0  0  0  0  0  0  0  0
   53.1756  156.7877   -2.6016 N   0  0  0  0  0  0  0  0  0  0  0  0
   54.1896  155.6372   -4.1624 N   0  0  0  0  0  0  0  0  0  0  0  0
   53.8695  159.3543   -4.7036 N   0  0  0  0  0  0  0  0  0  0  0  0
   55.4606  159.0759   -1.4354 O   0  0  0  0  0  0  0  0  0  0  0  0
   52.7089  154.0722   -4.2783 H   0  0  0  0  0  0  0  0  0  0  0  0
   56.0895  157.0986   -1.4401 H   0  0  0  0  0  0  0  0  0  0  0  0
   57.1403  158.2614   -2.2741 H   0  0  0  0  0  0  0  0  0  0  0  0
   54.8151  160.8415   -2.3156 H   0  0  0  0  0  0  0  0  0  0  0  0
   53.5842  159.5849   -2.0831 H   0  0  0  0  0  0  0  0  0  0  0  0
   56.0900  157.3798   -4.2118 H   0  0  0  0  0  0  0  0  0  0  0  0
   55.8251  159.7226   -4.1342 H   0  0  0  0  0  0  0  0  0  0  0  0
   54.0336  155.9015   -6.8816 H   0  0  0  0  0  0  0  0  0  0  0  0
   55.7647  155.6513   -7.1733 H   0  0  0  0  0  0  0  0  0  0  0  0
   55.2098  157.0725   -6.2694 H   0  0  0  0  0  0  0  0  0  0  0  0
   56.1500  155.3244   -4.7201 H   0  0  0  0  0  0  0  0  0  0  0  0
   54.9915  154.1454   -5.3385 H   0  0  0  0  0  0  0  0  0  0  0  0
   53.8335  158.7364   -5.4896 H   0  0  0  0  0  0  0  0  0  0  0  0
   53.3201  160.1896   -4.6660 H   0  0  0  0  0  0  0  0  0  0  0  0
  1  9  2  0  0  0  0
  1 11  1  0  0  0  0
  2  5  1  0  0  0  0
  2 10  2  0  0  0  0
  2 11  1  0  0  0  0
  3  5  1  0  0  0  0
  3 13  1  0  0  0  0
  4  6  1  0  0  0  0
  4 13  1  0  0  0  0
  5  6  1  0  0  0  0
  6 12  1  0  0  0  0
  7  8  1  0  0  0  0
  8 11  1  0  0  0  0
  9 10  1  0  0  0  0
  1 14  1  0  0  0  0
  3 15  1  0  0  0  0
  3 16  1  0  0  0  0
  4 17  1  0  0  0  0
  4 18  1  0  0  0  0
  5 19  1  0  0  0  0
  6 20  1  0  0  0  0
  7 21  1  0  0  0  0
  7 22  1  0  0  0  0
  7 23  1  0  0  0  0
  8 24  1  0  0  0  0
  8 25  1  0  0  0  0
 12 26  1  0  0  0  0
 12 27  1  0  0  0  0
M  END
> <FRED Chemgauss4 score>
-5.190656

$$$$
C16951488	P25522321
  -OEChem-05122015083D

 31 31  0     1  0  0  0  0  0999 V2000
   53.4028  155.2723   -4.5546 C   0  0  2  0  0  0  0  0  0  0  0  0
   53.5224  155.9693   -3.1989 C   0  0  2  0  0  0  0  0  0  0  0  0
   54.2254  156.0119   -5.6099 C   0  0  1  0  0  0  0  0  0  0  0  0
   54.9907  156.2253   -2.8378 C   0  0  2  0  0  0  0  0  0  0  0  0
   55.6721  156.2314   -5.1401 C   0  0  1  0  0  0  0  0  0  0  0  0
   57.6704  155.1190   -4.5996 C   0  0  0  0  0  0  0  0  0  0  0  0
   55.1300  157.0713   -1.5751 C   0  0  0  0  0  0  0  0  0  0  0  0
   56.4546  157.0978   -6.1291 C   0  0  0  0  0  0  0  0  0  0  0  0
   55.6617  156.9300   -3.8884 O   0  0  0  0  0  0  0  0  0  0  0  0
   52.0269  155.2788   -4.9417 O   0  0  0  0  0  0  0  0  0  0  0  0
   52.9093  155.1372   -2.2172 O   0  0  0  0  0  0  0  0  0  0  0  0
   54.1898  155.2525   -6.8162 O   0  0  0  0  0  0  0  0  0  0  0  0
   54.5026  158.3205   -1.7989 O   0  0  0  0  0  0  0  0  0  0  0  0
   55.6000  158.1230   -6.5975 O   0  0  0  0  0  0  0  0  0  0  0  0
   56.3288  154.9651   -5.0315 O   0  0  0  0  0  0  0  0  0  0  0  0
   53.6993  154.2189   -4.4812 H   0  0  0  0  0  0  0  0  0  0  0  0
   52.9614  156.9122   -3.2334 H   0  0  0  0  0  0  0  0  0  0  0  0
   53.7392  156.9751   -5.8141 H   0  0  0  0  0  0  0  0  0  0  0  0
   55.5074  155.2752   -2.6511 H   0  0  0  0  0  0  0  0  0  0  0  0
   58.1452  154.1375   -4.5262 H   0  0  0  0  0  0  0  0  0  0  0  0
   57.6861  155.6169   -3.6268 H   0  0  0  0  0  0  0  0  0  0  0  0
   58.2104  155.7289   -5.3277 H   0  0  0  0  0  0  0  0  0  0  0  0
   56.1841  157.2321   -1.3503 H   0  0  0  0  0  0  0  0  0  0  0  0
   54.6468  156.5699   -0.7368 H   0  0  0  0  0  0  0  0  0  0  0  0
   56.7860  156.4893   -6.9686 H   0  0  0  0  0  0  0  0  0  0  0  0
   57.3141  157.5412   -5.6296 H   0  0  0  0  0  0  0  0  0  0  0  0
   51.7638  156.2095   -4.9953 H   0  0  0  0  0  0  0  0  0  0  0  0
   53.3912  154.2959   -2.2287 H   0  0  0  0  0  0  0  0  0  0  0  0
   53.2573  155.1878   -7.0737 H   0  0  0  0  0  0  0  0  0  0  0  0
   54.6036  158.8410   -0.9837 H   0  0  0  0  0  0  0  0  0  0  0  0
   56.1144  158.6616   -7.2234 H   0  0  0  0  0  0  0  0  0  0  0  0
  1  2  1  0  0  0  0
  1  3  1  0  0  0  0
  1 10  1  0  0  0  0
  2  4  1  0  0  0  0
  2 11  1  0  0  0  0
  3  5  1  0  0  0  0
  3 12  1  0  0  0  0
  4  7  1  0  0  0  0
  4  9  1  0  0  0  0
  5  8  1  0  0  0  0
  5  9  1  0  0  0  0
  5 15  1  0  0  0  0
  6 15  1  0  0  0  0
  7 13  1  0  0  0  0
  8 14  1  0  0  0  0
  1 16  1  0  0  0  0
  2 17  1  0  0  0  0
  3 18  1  0  0  0  0
  4 19  1  0  0  0  0
  6 20  1  0  0  0  0
  6 21  1  0  0  0  0
  6 22  1  0  0  0  0
  7 23  1  0  0  0  0
  7 24  1  0  0  0  0
  8 25  1  0  0  0  0
  8 26  1  0  0  0  0
 10 27  1  0  0  0  0
 11 28  1  0  0  0  0
 12 29  1  0  0  0  0
 13 30  1  0  0  0  0
 14 31  1  0  0  0  0
M  END
> <FRED Chemgauss4 score>
-5.190165

$$$$
C02539687	P23071667
  -OEChem-05122015083D

 20 20  0     1  0  0  0  0  0999 V2000
   55.8630  155.5220   -6.5529 C   0  0  0  0  0  0  0  0  0  0  0  0
   56.0906  156.7940   -6.2041 C   0  0  0  0  0  0  0  0  0  0  0  0
   54.6255  154.8017   -6.1212 C   0  0  1  0  0  0  0  0  0  0  0  0
   53.5881  155.7905   -5.5811 C   0  0  2  0  0  0  0  0  0  0  0  0
   54.2457  156.8681   -4.7061 C   0  0  1  0  0  0  0  0  0  0  0  0
   54.7811  156.3546   -3.3667 C   0  0  0  0  0  0  0  0  0  0  0  0
   55.2961  157.5667   -5.3982 O   0  0  0  0  0  0  0  0  0  0  0  0
   54.0680  154.0979   -7.2300 O   0  0  0  0  0  0  0  0  0  0  0  0
   52.5960  155.0947   -4.8343 O   0  0  0  0  0  0  0  0  0  0  0  0
   53.7007  155.8180   -2.6251 O   0  0  0  0  0  0  0  0  0  0  0  0
   56.6035  154.9818   -7.1306 H   0  0  0  0  0  0  0  0  0  0  0  0
   56.9631  157.3485   -6.5251 H   0  0  0  0  0  0  0  0  0  0  0  0
   54.8863  154.0706   -5.3446 H   0  0  0  0  0  0  0  0  0  0  0  0
   53.0673  156.2852   -6.4291 H   0  0  0  0  0  0  0  0  0  0  0  0
   53.4649  157.6404   -4.4701 H   0  0  0  0  0  0  0  0  0  0  0  0
   55.2305  157.1746   -2.8064 H   0  0  0  0  0  0  0  0  0  0  0  0
   55.5237  155.5749   -3.5367 H   0  0  0  0  0  0  0  0  0  0  0  0
   54.7448  153.4705   -7.5292 H   0  0  0  0  0  0  0  0  0  0  0  0
   51.9704  155.7644   -4.5189 H   0  0  0  0  0  0  0  0  0  0  0  0
   54.0641  155.4993   -1.7814 H   0  0  0  0  0  0  0  0  0  0  0  0
  1  2  2  0  0  0  0
  1  3  1  0  0  0  0
  2  7  1  0  0  0  0
  3  4  1  0  0  0  0
  3  8  1  0  0  0  0
  4  5  1  0  0  0  0
  4  9  1  0  0  0  0
  5  6  1  0  0  0  0
  5  7  1  0  0  0  0
  6 10  1  0  0  0  0
  1 11  1  0  0  0  0
  2 12  1  0  0  0  0
  3 13  1  0  0  0  0
  4 14  1  0  0  0  0
  5 15  1  0  0  0  0
  6 16  1  0  0  0  0
  6 17  1  0  0  0  0
  8 18  1  0  0  0  0
  9 19  1  0  0  0  0
 10 20  1  0  0  0  0
M  END
> <FRED Chemgauss4 score>
-5.188150

$$$$
C70648394	P108999506
  -OEChem-05122015083D

 23 23  0     1  0  0  0  0  0999 V2000
   54.0956  157.5644   -3.5092 C   0  0  0  0  0  0  0  0  0  0  0  0
   55.1141  155.7316   -2.9503 C   0  0  0  0  0  0  0  0  0  0  0  0
   55.7483  153.7975   -6.1058 C   0  0  0  0  0  0  0  0  0  0  0  0
   55.9388  156.8077   -5.1373 C   0  0  0  0  0  0  0  0  0  0  0  0
   55.2430  156.3249   -6.4252 C   0  0  1  0  0  0  0  0  0  0  0  0
   54.7005  154.8784   -6.3470 C   0  0  2  0  0  0  0  0  0  0  0  0
   53.5641  157.1451   -2.3831 N   0  0  0  0  0  0  0  0  0  0  0  0
   54.2121  155.9790   -2.0276 N   0  0  0  0  0  0  0  0  0  0  0  0
   55.0757  156.7045   -3.9026 N   0  0  0  0  0  0  0  0  0  0  0  0
   54.1764  157.2794   -6.7564 N   0  0  0  0  0  0  0  0  0  0  0  0
   53.7379  154.7899   -5.2928 O   0  0  0  0  0  0  0  0  0  0  0  0
   53.8195  158.4505   -4.0626 H   0  0  0  0  0  0  0  0  0  0  0  0
   55.7962  154.8937   -2.9764 H   0  0  0  0  0  0  0  0  0  0  0  0
   56.3020  154.0137   -5.1849 H   0  0  0  0  0  0  0  0  0  0  0  0
   56.4938  153.7717   -6.9074 H   0  0  0  0  0  0  0  0  0  0  0  0
   55.2997  152.8060   -6.0056 H   0  0  0  0  0  0  0  0  0  0  0  0
   56.3007  157.8373   -5.2551 H   0  0  0  0  0  0  0  0  0  0  0  0
   56.8409  156.2058   -4.9563 H   0  0  0  0  0  0  0  0  0  0  0  0
   55.9580  156.3707   -7.2564 H   0  0  0  0  0  0  0  0  0  0  0  0
   54.1642  154.6367   -7.2715 H   0  0  0  0  0  0  0  0  0  0  0  0
   53.4519  156.9687   -7.3599 H   0  0  0  0  0  0  0  0  0  0  0  0
   54.3293  158.2352   -6.5354 H   0  0  0  0  0  0  0  0  0  0  0  0
   53.3584  153.9007   -5.3461 H   0  0  0  0  0  0  0  0  0  0  0  0
  1  7  2  0  0  0  0
  1  9  1  0  0  0  0
  2  8  2  0  0  0  0
  2  9  1  0  0  0  0
  3  6  1  0  0  0  0
  4  5  1  0  0  0  0
  4  9  1  0  0  0  0
  5  6  1  0  0  0  0
  5 10  1  0  0  0  0
  6 11  1  0  0  0  0
  7  8  1  0  0  0  0
  1 12  1  0  0  0  0
  2 13  1  0  0  0  0
  3 14  1  0  0  0  0
  3 15  1  0  0  0  0
  3 16  1  0  0  0  0
  4 17  1  0  0  0  0
  4 18  1  0  0  0  0
  5 19  1  0  0  0  0
  6 20  1  0  0  0  0
 10 21  1  0  0  0  0
 10 22  1  0  0  0  0
 11 23  1  0  0  0  0
M  END
> <FRED Chemgauss4 score>
-5.187906

$$$$
C54138565	P81447022
  -OEChem-05122015083D

 21 20  0     0  0  0  0  0  0999 V2000
   57.5673  159.0523   -0.6952 C   0  0  0  0  0  0  0  0  0  0  0  0
   53.8720  156.1851   -3.3348 C   0  0  0  0  0  0  0  0  0  0  0  0
   57.0547  159.7872   -1.8598 C   0  0  0  0  0  0  0  0  0  0  0  0
   53.6003  155.3916   -4.5873 C   0  0  0  0  0  0  0  0  0  0  0  0
   56.5665  158.8243   -2.9443 C   0  0  0  0  0  0  0  0  0  0  0  0
   55.3995  157.9595   -2.4791 C   0  0  0  0  0  0  0  0  0  0  0  0
   57.9721  158.4737    0.2254 N   0  0  0  0  0  0  0  0  0  0  0  0
   52.6227  156.1059   -5.4214 N   0  0  0  0  0  0  0  0  0  0  0  0
   54.9250  157.0705   -3.5151 N   0  0  0  0  0  0  0  0  0  0  0  0
   53.2289  156.0512   -2.2971 O   0  0  0  0  0  0  0  0  0  0  0  0
   56.2378  160.4438   -1.5402 H   0  0  0  0  0  0  0  0  0  0  0  0
   57.8465  160.4295   -2.2622 H   0  0  0  0  0  0  0  0  0  0  0  0
   54.5291  155.2632   -5.1510 H   0  0  0  0  0  0  0  0  0  0  0  0
   53.1978  154.4091   -4.3239 H   0  0  0  0  0  0  0  0  0  0  0  0
   57.3956  158.1840   -3.2725 H   0  0  0  0  0  0  0  0  0  0  0  0
   56.2462  159.3996   -3.8224 H   0  0  0  0  0  0  0  0  0  0  0  0
   55.6771  157.3493   -1.6140 H   0  0  0  0  0  0  0  0  0  0  0  0
   54.5552  158.5939   -2.1913 H   0  0  0  0  0  0  0  0  0  0  0  0
   52.0928  155.5711   -6.0677 H   0  0  0  0  0  0  0  0  0  0  0  0
   52.6793  157.0964   -5.4486 H   0  0  0  0  0  0  0  0  0  0  0  0
   55.3854  157.0950   -4.4203 H   0  0  0  0  0  0  0  0  0  0  0  0
  1  3  1  0  0  0  0
  1  7  3  0  0  0  0
  2  4  1  0  0  0  0
  2  9  1  0  0  0  0
  2 10  2  0  0  0  0
  3  5  1  0  0  0  0
  4  8  1  0  0  0  0
  5  6  1  0  0  0  0
  6  9  1  0  0  0  0
  3 11  1  0  0  0  0
  3 12  1  0  0  0  0
  4 13  1  0  0  0  0
  4 14  1  0  0  0  0
  5 15  1  0  0  0  0
  5 16  1  0  0  0  0
  6 17  1  0  0  0  0
  6 18  1  0  0  0  0
  8 19  1  0  0  0  0
  8 20  1  0  0  0  0
  9 21  1  0  0  0  0
M  END
> <FRED Chemgauss4 score>
-5.186683

$$$$
C67425135	P103549599
  -OEChem-05122015083D

 25 25  0     1  0  0  0  0  0999 V2000
   54.8438  156.6316   -4.1362 C   0  0  0  0  0  0  0  0  0  0  0  0
   55.4309  154.9446   -6.4592 C   0  0  0  0  0  0  0  0  0  0  0  0
   54.5177  154.4026   -5.3738 C   0  0  0  0  0  0  0  0  0  0  0  0
   56.5154  155.7859   -5.8173 C   0  0  0  0  0  0  0  0  0  0  0  0
   53.8665  155.5518   -4.6088 C   0  0  1  0  0  0  0  0  0  0  0  0
   56.9370  157.8671   -4.5526 C   0  0  0  0  0  0  0  0  0  0  0  0
   53.0386  155.0146   -3.4399 C   0  0  0  0  0  0  0  0  0  0  0  0
   56.0099  156.7945   -4.8885 N   0  0  0  0  0  0  0  0  0  0  0  0
   52.3026  156.0782   -2.8484 N   0  0  0  0  0  0  0  0  0  0  0  0
   54.5443  157.3633   -3.1876 O   0  0  0  0  0  0  0  0  0  0  0  0
   52.9887  156.2691   -5.4807 O   0  0  0  0  0  0  0  0  0  0  0  0
   55.8756  154.1255   -7.0324 H   0  0  0  0  0  0  0  0  0  0  0  0
   54.8577  155.5527   -7.1661 H   0  0  0  0  0  0  0  0  0  0  0  0
   53.7466  153.7687   -5.8238 H   0  0  0  0  0  0  0  0  0  0  0  0
   55.0800  153.7582   -4.6926 H   0  0  0  0  0  0  0  0  0  0  0  0
   57.2112  155.1333   -5.2822 H   0  0  0  0  0  0  0  0  0  0  0  0
   57.0776  156.3210   -6.5893 H   0  0  0  0  0  0  0  0  0  0  0  0
   57.6753  157.5125   -3.8287 H   0  0  0  0  0  0  0  0  0  0  0  0
   56.3959  158.7121   -4.1182 H   0  0  0  0  0  0  0  0  0  0  0  0
   57.4598  158.2095   -5.4497 H   0  0  0  0  0  0  0  0  0  0  0  0
   53.7127  154.5905   -2.7101 H   0  0  0  0  0  0  0  0  0  0  0  0
   52.3559  154.2662   -3.8142 H   0  0  0  0  0  0  0  0  0  0  0  0
   52.7093  157.0069   -2.7929 H   0  0  0  0  0  0  0  0  0  0  0  0
   51.4692  155.8768   -2.3042 H   0  0  0  0  0  0  0  0  0  0  0  0
   52.3432  155.6258   -5.8114 H   0  0  0  0  0  0  0  0  0  0  0  0
  1  5  1  0  0  0  0
  1  8  1  0  0  0  0
  1 10  2  0  0  0  0
  2  3  1  0  0  0  0
  2  4  1  0  0  0  0
  3  5  1  0  0  0  0
  4  8  1  0  0  0  0
  5  7  1  0  0  0  0
  5 11  1  0  0  0  0
  6  8  1  0  0  0  0
  7  9  1  0  0  0  0
  2 12  1  0  0  0  0
  2 13  1  0  0  0  0
  3 14  1  0  0  0  0
  3 15  1  0  0  0  0
  4 16  1  0  0  0  0
  4 17  1  0  0  0  0
  6 18  1  0  0  0  0
  6 19  1  0  0  0  0
  6 20  1  0  0  0  0
  7 21  1  0  0  0  0
  7 22  1  0  0  0  0
  9 23  1  0  0  0  0
  9 24  1  0  0  0  0
 11 25  1  0  0  0  0
M  END
> <FRED Chemgauss4 score>
-5.182917

$$$$
C39129103	P151026861
  -OEChem-05122015083D

 23 23  0     1  0  0  0  0  0999 V2000
   53.7932  156.7698   -5.8867 C   0  0  0  0  0  0  0  0  0  0  0  0
   53.4725  156.3336   -3.4427 C   0  0  0  0  0  0  0  0  0  0  0  0
   57.3620  157.1175   -6.8908 C   0  0  0  0  0  0  0  0  0  0  0  0
   55.2791  156.5223   -5.6702 C   0  0  2  0  0  0  0  0  0  0  0  0
   55.7039  157.0020   -4.2865 C   0  0  1  0  0  0  0  0  0  0  0  0
   57.8861  157.9042   -8.0461 C   0  0  0  0  0  0  0  0  0  0  0  0
   53.0207  156.6130   -4.7356 N   0  0  0  0  0  0  0  0  0  0  0  0
   54.8435  156.4272   -3.2740 N   0  0  0  0  0  0  0  0  0  0  0  0
   57.0785  156.6258   -3.9837 N   0  0  0  0  0  0  0  0  0  0  0  0
   55.9903  157.2034   -6.7207 N   0  0  0  0  0  0  0  0  0  0  0  0
   53.2997  156.9903   -6.9917 O   0  0  0  0  0  0  0  0  0  0  0  0
   52.7094  156.0139   -2.5302 O   0  0  0  0  0  0  0  0  0  0  0  0
   58.1391  156.4727   -6.1967 O   0  0  0  0  0  0  0  0  0  0  0  0
   55.4517  155.4458   -5.7933 H   0  0  0  0  0  0  0  0  0  0  0  0
   55.6036  158.0916   -4.2087 H   0  0  0  0  0  0  0  0  0  0  0  0
   58.1597  158.9337   -7.7642 H   0  0  0  0  0  0  0  0  0  0  0  0
   58.8028  157.4657   -8.4721 H   0  0  0  0  0  0  0  0  0  0  0  0
   57.1938  158.0109   -8.8965 H   0  0  0  0  0  0  0  0  0  0  0  0
   52.0158  156.7132   -4.8501 H   0  0  0  0  0  0  0  0  0  0  0  0
   55.2581  156.0823   -2.4141 H   0  0  0  0  0  0  0  0  0  0  0  0
   57.3401  156.5232   -3.0255 H   0  0  0  0  0  0  0  0  0  0  0  0
   57.7557  156.6820   -4.7154 H   0  0  0  0  0  0  0  0  0  0  0  0
   55.4577  157.7773   -7.3715 H   0  0  0  0  0  0  0  0  0  0  0  0
  1  4  1  0  0  0  0
  1  7  1  0  0  0  0
  1 11  2  0  0  0  0
  2  7  1  0  0  0  0
  2  8  1  0  0  0  0
  2 12  2  0  0  0  0
  3  6  1  0  0  0  0
  3 10  1  0  0  0  0
  3 13  2  0  0  0  0
  4  5  1  0  0  0  0
  4 10  1  0  0  0  0
  5  8  1  0  0  0  0
  5  9  1  0  0  0  0
  4 14  1  0  0  0  0
  5 15  1  0  0  0  0
  6 16  1  0  0  0  0
  6 17  1  0  0  0  0
  6 18  1  0  0  0  0
  7 19  1  0  0  0  0
  8 20  1  0  0  0  0
  9 21  1  0  0  0  0
  9 22  1  0  0  0  0
 10 23  1  0  0  0  0
M  END
> <FRED Chemgauss4 score>
-5.182034

$$$$
C98245623	P156263510
  -OEChem-05122015083D

 27 27  0     0  0  0  0  0  0999 V2000
   57.5557  153.7520   -7.0579 C   0  0  0  0  0  0  0  0  0  0  0  0
   58.6717  155.7392   -6.7156 C   0  0  0  0  0  0  0  0  0  0  0  0
   59.0120  153.3865   -7.0367 C   0  0  0  0  0  0  0  0  0  0  0  0
   59.7476  154.6963   -6.8079 C   0  0  0  0  0  0  0  0  0  0  0  0
   56.1926  155.8233   -6.8227 C   0  0  0  0  0  0  0  0  0  0  0  0
   53.3537  155.4979   -3.4137 C   0  0  0  0  0  0  0  0  0  0  0  0
   55.3458  155.3014   -5.6764 C   0  0  0  0  0  0  0  0  0  0  0  0
   53.1266  155.3162   -4.9033 C   0  0  0  0  0  0  0  0  0  0  0  0
   57.4552  155.1103   -6.8588 N   0  0  0  0  0  0  0  0  0  0  0  0
   53.3141  156.9395   -3.0774 N   0  0  0  0  0  0  0  0  0  0  0  0
   56.6523  152.9455   -7.2303 O   0  0  0  0  0  0  0  0  0  0  0  0
   58.8870  156.9312   -6.5443 O   0  0  0  0  0  0  0  0  0  0  0  0
   54.1243  156.0273   -5.6230 O   0  0  0  0  0  0  0  0  0  0  0  0
   59.2029  152.6749   -6.2280 H   0  0  0  0  0  0  0  0  0  0  0  0
   59.2929  152.9331   -7.9918 H   0  0  0  0  0  0  0  0  0  0  0  0
   60.4173  154.9285   -7.6412 H   0  0  0  0  0  0  0  0  0  0  0  0
   60.3217  154.6744   -5.8770 H   0  0  0  0  0  0  0  0  0  0  0  0
   55.6902  155.6799   -7.7846 H   0  0  0  0  0  0  0  0  0  0  0  0
   56.4057  156.8877   -6.6850 H   0  0  0  0  0  0  0  0  0  0  0  0
   52.5812  154.9881   -2.8293 H   0  0  0  0  0  0  0  0  0  0  0  0
   54.3352  155.1078   -3.1277 H   0  0  0  0  0  0  0  0  0  0  0  0
   55.8687  155.4497   -4.7264 H   0  0  0  0  0  0  0  0  0  0  0  0
   55.1180  154.2372   -5.7962 H   0  0  0  0  0  0  0  0  0  0  0  0
   52.1510  155.7238   -5.1861 H   0  0  0  0  0  0  0  0  0  0  0  0
   53.1696  154.2608   -5.1913 H   0  0  0  0  0  0  0  0  0  0  0  0
   53.8003  157.2245   -2.2665 H   0  0  0  0  0  0  0  0  0  0  0  0
   52.6494  157.4930   -3.5538 H   0  0  0  0  0  0  0  0  0  0  0  0
  1  3  1  0  0  0  0
  1  9  1  0  0  0  0
  1 11  2  0  0  0  0
  2  4  1  0  0  0  0
  2  9  1  0  0  0  0
  2 12  2  0  0  0  0
  3  4  1  0  0  0  0
  5  7  1  0  0  0  0
  5  9  1  0  0  0  0
  6  8  1  0  0  0  0
  6 10  1  0  0  0  0
  7 13  1  0  0  0  0
  8 13  1  0  0  0  0
  3 14  1  0  0  0  0
  3 15  1  0  0  0  0
  4 16  1  0  0  0  0
  4 17  1  0  0  0  0
  5 18  1  0  0  0  0
  5 19  1  0  0  0  0
  6 20  1  0  0  0  0
  6 21  1  0  0  0  0
  7 22  1  0  0  0  0
  7 23  1  0  0  0  0
  8 24  1  0  0  0  0
  8 25  1  0  0  0  0
 10 26  1  0  0  0  0
 10 27  1  0  0  0  0
M  END
> <FRED Chemgauss4 score>
-5.181601

$$$$
C49691658	P74238157
  -OEChem-05122015083D

 28 28  0     1  0  0  0  0  0999 V2000
   55.5065  154.8366   -6.2166 C   0  0  0  0  0  0  0  0  0  0  0  0
   56.9257  156.8073   -5.9624 C   0  0  0  0  0  0  0  0  0  0  0  0
   56.6770  153.8577   -6.2561 C   0  0  0  0  0  0  0  0  0  0  0  0
   58.2285  156.0123   -5.9783 C   0  0  0  0  0  0  0  0  0  0  0  0
   55.8003  155.8547   -4.0224 C   0  0  0  0  0  0  0  0  0  0  0  0
   53.5244  156.9190   -3.5947 C   0  0  0  0  0  0  0  0  0  0  0  0
   54.4130  155.6902   -3.4000 C   0  0  2  0  0  0  0  0  0  0  0  0
   55.7534  156.0746   -5.4654 N   0  0  0  0  0  0  0  0  0  0  0  0
   52.9604  156.9153   -4.9266 N   0  0  0  0  0  0  0  0  0  0  0  0
   59.2876  153.7090   -6.8565 O   0  0  0  0  0  0  0  0  0  0  0  0
   54.5485  155.4404   -2.0009 O   0  0  0  0  0  0  0  0  0  0  0  0
   58.1032  154.5943   -7.1080 S   0  0  0  0  0  0  0  0  0  0  0  0
   55.1759  155.0717   -7.2528 H   0  0  0  0  0  0  0  0  0  0  0  0
   54.6516  154.3011   -5.7528 H   0  0  0  0  0  0  0  0  0  0  0  0
   57.0943  157.6936   -5.3153 H   0  0  0  0  0  0  0  0  0  0  0  0
   56.7231  157.2204   -6.9758 H   0  0  0  0  0  0  0  0  0  0  0  0
   56.9818  153.5555   -5.2486 H   0  0  0  0  0  0  0  0  0  0  0  0
   56.3974  152.9572   -6.8109 H   0  0  0  0  0  0  0  0  0  0  0  0
   59.0500  156.6406   -6.3360 H   0  0  0  0  0  0  0  0  0  0  0  0
   58.4890  155.6485   -4.9787 H   0  0  0  0  0  0  0  0  0  0  0  0
   56.3282  156.7045   -3.5785 H   0  0  0  0  0  0  0  0  0  0  0  0
   56.4002  154.9525   -3.8655 H   0  0  0  0  0  0  0  0  0  0  0  0
   54.0968  157.8439   -3.4686 H   0  0  0  0  0  0  0  0  0  0  0  0
   52.7037  156.9170   -2.8700 H   0  0  0  0  0  0  0  0  0  0  0  0
   53.9315  154.8092   -3.8417 H   0  0  0  0  0  0  0  0  0  0  0  0
   53.5304  156.6039   -5.6916 H   0  0  0  0  0  0  0  0  0  0  0  0
   52.1004  157.4068   -5.0882 H   0  0  0  0  0  0  0  0  0  0  0  0
   55.0660  154.6254   -1.9171 H   0  0  0  0  0  0  0  0  0  0  0  0
  1  3  1  0  0  0  0
  1  8  1  0  0  0  0
  2  4  1  0  0  0  0
  2  8  1  0  0  0  0
  3 12  1  0  0  0  0
  4 12  1  0  0  0  0
  5  7  1  0  0  0  0
  5  8  1  0  0  0  0
  6  7  1  0  0  0  0
  6  9  1  0  0  0  0
  7 11  1  0  0  0  0
 10 12  2  0  0  0  0
  1 13  1  0  0  0  0
  1 14  1  0  0  0  0
  2 15  1  0  0  0  0
  2 16  1  0  0  0  0
  3 17  1  0  0  0  0
  3 18  1  0  0  0  0
  4 19  1  0  0  0  0
  4 20  1  0  0  0  0
  5 21  1  0  0  0  0
  5 22  1  0  0  0  0
  6 23  1  0  0  0  0
  6 24  1  0  0  0  0
  7 25  1  0  0  0  0
  9 26  1  0  0  0  0
  9 27  1  0  0  0  0
 11 28  1  0  0  0  0
M  END
> <FRED Chemgauss4 score>
-5.178708

$$$$
C97526444	P154508284
  -OEChem-05122015083D

 34 35  0     1  0  0  0  0  0999 V2000
   56.3862  159.3843   -1.7635 C   0  0  0  0  0  0  0  0  0  0  0  0
   57.5535  159.5556   -1.0195 C   0  0  0  0  0  0  0  0  0  0  0  0
   58.5942  160.6514   -2.9045 C   0  0  0  0  0  0  0  0  0  0  0  0
   53.7527  155.8509   -2.4329 C   0  0  0  0  0  0  0  0  0  0  0  0
   56.3229  159.8465   -3.0781 C   0  0  0  0  0  0  0  0  0  0  0  0
   57.4269  160.4801   -3.6486 C   0  0  0  0  0  0  0  0  0  0  0  0
   58.6575  160.1892   -1.5899 C   0  0  0  0  0  0  0  0  0  0  0  0
   54.5982  157.1516   -3.8296 C   0  0  0  0  0  0  0  0  0  0  0  0
   55.9964  153.9039   -5.1418 C   0  0  0  0  0  0  0  0  0  0  0  0
   55.0228  158.3302   -4.6756 C   0  0  0  0  0  0  0  0  0  0  0  0
   55.9776  155.4193   -5.0384 C   0  0  0  0  0  0  0  0  0  0  0  0
   55.0734  159.6615   -3.8715 C   0  0  2  0  0  0  0  0  0  0  0  0
   53.7667  157.1622   -2.8137 N   0  0  0  0  0  0  0  0  0  0  0  0
   54.5233  155.0296   -3.1492 N   0  0  0  0  0  0  0  0  0  0  0  0
   55.0528  155.8864   -4.0356 N   0  0  0  0  0  0  0  0  0  0  0  0
   53.4692  160.7624   -5.1687 N   0  0  0  0  0  0  0  0  0  0  0  0
   54.8414  160.7881   -4.8017 N   0  0  0  0  0  0  0  0  0  0  0  0
   57.3755  160.9268   -4.9111 F   0  0  0  0  0  0  0  0  0  0  0  0
   60.0971  160.4008   -0.6709 Cl  0  0  0  0  0  0  0  0  0  0  0  0
   55.5309  158.8896   -1.3108 H   0  0  0  0  0  0  0  0  0  0  0  0
   57.5883  159.1895    0.0035 H   0  0  0  0  0  0  0  0  0  0  0  0
   59.4465  161.1472   -3.3619 H   0  0  0  0  0  0  0  0  0  0  0  0
   53.1624  155.4824   -1.6077 H   0  0  0  0  0  0  0  0  0  0  0  0
   56.2810  153.4457   -4.1887 H   0  0  0  0  0  0  0  0  0  0  0  0
   56.7156  153.5845   -5.9023 H   0  0  0  0  0  0  0  0  0  0  0  0
   55.0111  153.5142   -5.4183 H   0  0  0  0  0  0  0  0  0  0  0  0
   54.3164  158.4086   -5.5139 H   0  0  0  0  0  0  0  0  0  0  0  0
   55.9975  158.1214   -5.1361 H   0  0  0  0  0  0  0  0  0  0  0  0
   55.6918  155.8684   -5.9964 H   0  0  0  0  0  0  0  0  0  0  0  0
   56.9726  155.8015   -4.7840 H   0  0  0  0  0  0  0  0  0  0  0  0
   54.1983  159.6661   -3.1944 H   0  0  0  0  0  0  0  0  0  0  0  0
   52.9783  160.0564   -4.6207 H   0  0  0  0  0  0  0  0  0  0  0  0
   53.0572  161.6563   -4.9042 H   0  0  0  0  0  0  0  0  0  0  0  0
   55.4239  160.6515   -5.6178 H   0  0  0  0  0  0  0  0  0  0  0  0
  1  2  2  0  0  0  0
  1  5  1  0  0  0  0
  2  7  1  0  0  0  0
  3  6  1  0  0  0  0
  3  7  2  0  0  0  0
  4 13  1  0  0  0  0
  4 14  2  0  0  0  0
  5  6  2  0  0  0  0
  5 12  1  0  0  0  0
  6 18  1  0  0  0  0
  7 19  1  0  0  0  0
  8 10  1  0  0  0  0
  8 13  2  0  0  0  0
  8 15  1  0  0  0  0
  9 11  1  0  0  0  0
 10 12  1  0  0  0  0
 11 15  1  0  0  0  0
 12 17  1  0  0  0  0
 14 15  1  0  0  0  0
 16 17  1  0  0  0  0
  1 20  1  0  0  0  0
  2 21  1  0  0  0  0
  3 22  1  0  0  0  0
  4 23  1  0  0  0  0
  9 24  1  0  0  0  0
  9 25  1  0  0  0  0
  9 26  1  0  0  0  0
 10 27  1  0  0  0  0
 10 28  1  0  0  0  0
 11 29  1  0  0  0  0
 11 30  1  0  0  0  0
 12 31  1  0  0  0  0
 16 32  1  0  0  0  0
 16 33  1  0  0  0  0
 17 34  1  0  0  0  0
M  END
> <FRED Chemgauss4 score>
-5.177608

$$$$
C00895050	P05571510
  -OEChem-05122015083D

 20 20  0     1  0  0  0  0  0999 V2000
   53.6161  155.7738   -5.6619 C   0  0  2  0  0  0  0  0  0  0  0  0
   52.9594  155.1769   -4.4370 C   0  0  1  0  0  0  0  0  0  0  0  0
   54.9859  156.1639   -5.1235 C   0  0  2  0  0  0  0  0  0  0  0  0
   53.4719  156.0796   -3.3284 C   0  0  2  0  0  0  0  0  0  0  0  0
   56.0054  155.0353   -5.1980 C   0  0  0  0  0  0  0  0  0  0  0  0
   54.7864  156.4977   -3.7322 O   0  0  0  0  0  0  0  0  0  0  0  0
   52.9399  156.9672   -6.0556 O   0  0  0  0  0  0  0  0  0  0  0  0
   51.5477  155.1820   -4.5040 O   0  0  0  0  0  0  0  0  0  0  0  0
   53.5000  155.3573   -2.1063 O   0  0  0  0  0  0  0  0  0  0  0  0
   55.5371  153.9437   -4.4231 O   0  0  0  0  0  0  0  0  0  0  0  0
   53.6635  155.0945   -6.4691 H   0  0  0  0  0  0  0  0  0  0  0  0
   53.2817  154.1002   -4.2988 H   0  0  0  0  0  0  0  0  0  0  0  0
   55.3863  157.0392   -5.6294 H   0  0  0  0  0  0  0  0  0  0  0  0
   52.8419  156.9780   -3.2006 H   0  0  0  0  0  0  0  0  0  0  0  0
   56.9675  155.3667   -4.8007 H   0  0  0  0  0  0  0  0  0  0  0  0
   56.1339  154.7080   -6.2323 H   0  0  0  0  0  0  0  0  0  0  0  0
   53.3965  157.3123   -6.8433 H   0  0  0  0  0  0  0  0  0  0  0  0
   51.3056  154.6568   -5.2827 H   0  0  0  0  0  0  0  0  0  0  0  0
   53.8317  155.9682   -1.4290 H   0  0  0  0  0  0  0  0  0  0  0  0
   56.2058  153.2417   -4.4896 H   0  0  0  0  0  0  0  0  0  0  0  0
  1  2  1  0  0  0  0
  1  3  1  0  0  0  0
  1  7  1  0  0  0  0
  2  4  1  0  0  0  0
  2  8  1  0  0  0  0
  3  5  1  0  0  0  0
  3  6  1  0  0  0  0
  4  6  1  0  0  0  0
  4  9  1  0  0  0  0
  5 10  1  0  0  0  0
  1 11  1  0  0  0  0
  2 12  1  0  0  0  0
  3 13  1  0  0  0  0
  4 14  1  0  0  0  0
  5 15  1  0  0  0  0
  5 16  1  0  0  0  0
  7 17  1  0  0  0  0
  8 18  1  0  0  0  0
  9 19  1  0  0  0  0
 10 20  1  0  0  0  0
M  END
> <FRED Chemgauss4 score>
-5.175763

$$$$
C82915748	P129631253
  -OEChem-05122015083D

 24 24  0     1  0  0  0  0  0999 V2000
   57.0301  156.5139   -6.2670 C   0  0  0  0  0  0  0  0  0  0  0  0
   57.3623  157.4997   -5.3185 C   0  0  0  0  0  0  0  0  0  0  0  0
   56.2037  155.6507   -5.5899 C   0  0  0  0  0  0  0  0  0  0  0  0
   53.5376  157.3645   -3.2870 C   0  0  0  0  0  0  0  0  0  0  0  0
   55.2887  155.5607   -3.1922 C   0  0  0  0  0  0  0  0  0  0  0  0
   53.0217  155.1362   -4.3885 C   0  0  0  0  0  0  0  0  0  0  0  0
   53.7659  155.8450   -3.2377 C   0  0  2  0  0  0  0  0  0  0  0  0
   56.7932  157.2839   -4.1295 N   0  0  0  0  0  0  0  0  0  0  0  0
   56.0950  156.1526   -4.3264 N   0  0  0  0  0  0  0  0  0  0  0  0
   53.1305  155.8168   -5.6727 N   0  0  0  0  0  0  0  0  0  0  0  0
   53.1646  155.3801   -2.0211 O   0  0  0  0  0  0  0  0  0  0  0  0
   57.3459  156.4398   -7.2969 H   0  0  0  0  0  0  0  0  0  0  0  0
   57.9952  158.3662   -5.4460 H   0  0  0  0  0  0  0  0  0  0  0  0
   55.6979  154.7446   -5.8939 H   0  0  0  0  0  0  0  0  0  0  0  0
   52.4668  157.5961   -3.3199 H   0  0  0  0  0  0  0  0  0  0  0  0
   53.9792  157.8774   -2.4271 H   0  0  0  0  0  0  0  0  0  0  0  0
   53.9721  157.7940   -4.1974 H   0  0  0  0  0  0  0  0  0  0  0  0
   55.4655  154.4775   -3.1568 H   0  0  0  0  0  0  0  0  0  0  0  0
   55.7073  155.9562   -2.2561 H   0  0  0  0  0  0  0  0  0  0  0  0
   51.9619  155.0182   -4.1333 H   0  0  0  0  0  0  0  0  0  0  0  0
   53.4030  154.1123   -4.4938 H   0  0  0  0  0  0  0  0  0  0  0  0
   53.0761  156.8135   -5.6847 H   0  0  0  0  0  0  0  0  0  0  0  0
   53.0506  155.2705   -6.5045 H   0  0  0  0  0  0  0  0  0  0  0  0
   53.6182  155.8451   -1.3046 H   0  0  0  0  0  0  0  0  0  0  0  0
  1  2  1  0  0  0  0
  1  3  2  0  0  0  0
  2  8  2  0  0  0  0
  3  9  1  0  0  0  0
  4  7  1  0  0  0  0
  5  7  1  0  0  0  0
  5  9  1  0  0  0  0
  6  7  1  0  0  0  0
  6 10  1  0  0  0  0
  7 11  1  0  0  0  0
  8  9  1  0  0  0  0
  1 12  1  0  0  0  0
  2 13  1  0  0  0  0
  3 14  1  0  0  0  0
  4 15  1  0  0  0  0
  4 16  1  0  0  0  0
  4 17  1  0  0  0  0
  5 18  1  0  0  0  0
  5 19  1  0  0  0  0
  6 20  1  0  0  0  0
  6 21  1  0  0  0  0
 10 22  1  0  0  0  0
 10 23  1  0  0  0  0
 11 24  1  0  0  0  0
M  END
> <FRED Chemgauss4 score>
-5.169888

$$$$
C83676414	P130905360
  -OEChem-05122015083D

 37 37  0     1  0  0  0  0  0999 V2000
   56.9464  156.3098   -6.1174 C   0  0  0  0  0  0  0  0  0  0  0  0
   57.4761  153.9618   -6.2667 C   0  0  0  0  0  0  0  0  0  0  0  0
   57.9972  156.6149   -7.1904 C   0  0  0  0  0  0  0  0  0  0  0  0
   58.5260  154.2672   -7.3406 C   0  0  0  0  0  0  0  0  0  0  0  0
   62.0462  157.4068   -8.6367 C   0  0  0  0  0  0  0  0  0  0  0  0
   54.4475  155.8379   -5.0246 C   0  0  0  0  0  0  0  0  0  0  0  0
   55.3997  154.6681   -5.2640 C   0  0  0  0  0  0  0  0  0  0  0  0
   60.0748  155.9086   -8.1905 C   0  0  0  0  0  0  0  0  0  0  0  0
   53.3715  155.5529   -3.9790 C   0  0  0  0  0  0  0  0  0  0  0  0
   60.7055  157.2736   -7.9269 C   0  0  1  0  0  0  0  0  0  0  0  0
   56.3988  154.9588   -6.2905 N   0  0  0  0  0  0  0  0  0  0  0  0
   59.0743  155.6176   -7.1656 N   0  0  0  0  0  0  0  0  0  0  0  0
   52.5053  156.6783   -3.7576 N   0  0  0  0  0  0  0  0  0  0  0  0
   60.9166  157.4146   -6.5233 O   0  0  0  0  0  0  0  0  0  0  0  0
   57.3924  156.4270   -5.1203 H   0  0  0  0  0  0  0  0  0  0  0  0
   56.1413  157.0497   -6.2031 H   0  0  0  0  0  0  0  0  0  0  0  0
   57.0627  152.9650   -6.4626 H   0  0  0  0  0  0  0  0  0  0  0  0
   57.9568  153.9276   -5.2795 H   0  0  0  0  0  0  0  0  0  0  0  0
   57.5173  156.6490   -8.1780 H   0  0  0  0  0  0  0  0  0  0  0  0
   58.4106  157.6117   -6.9943 H   0  0  0  0  0  0  0  0  0  0  0  0
   59.3307  153.5268   -7.2559 H   0  0  0  0  0  0  0  0  0  0  0  0
   58.0792  154.1515   -8.3375 H   0  0  0  0  0  0  0  0  0  0  0  0
   62.7381  156.6158   -8.3320 H   0  0  0  0  0  0  0  0  0  0  0  0
   61.9199  157.3651   -9.7243 H   0  0  0  0  0  0  0  0  0  0  0  0
   62.5051  158.3755   -8.4106 H   0  0  0  0  0  0  0  0  0  0  0  0
   53.9681  156.0990   -5.9760 H   0  0  0  0  0  0  0  0  0  0  0  0
   55.0238  156.7142   -4.7032 H   0  0  0  0  0  0  0  0  0  0  0  0
   55.9313  154.3900   -4.3489 H   0  0  0  0  0  0  0  0  0  0  0  0
   54.8371  153.7940   -5.6070 H   0  0  0  0  0  0  0  0  0  0  0  0
   59.5864  155.8886   -9.1707 H   0  0  0  0  0  0  0  0  0  0  0  0
   60.8347  155.1207   -8.1693 H   0  0  0  0  0  0  0  0  0  0  0  0
   53.8393  155.3184   -3.0176 H   0  0  0  0  0  0  0  0  0  0  0  0
   52.7472  154.7018   -4.2677 H   0  0  0  0  0  0  0  0  0  0  0  0
   60.0331  158.0768   -8.2499 H   0  0  0  0  0  0  0  0  0  0  0  0
   52.8938  157.6083   -3.7704 H   0  0  0  0  0  0  0  0  0  0  0  0
   51.5778  156.5215   -3.3952 H   0  0  0  0  0  0  0  0  0  0  0  0
   61.3001  158.2949   -6.3899 H   0  0  0  0  0  0  0  0  0  0  0  0
  1  3  1  0  0  0  0
  1 11  1  0  0  0  0
  2  4  1  0  0  0  0
  2 11  1  0  0  0  0
  3 12  1  0  0  0  0
  4 12  1  0  0  0  0
  5 10  1  0  0  0  0
  6  7  1  0  0  0  0
  6  9  1  0  0  0  0
  7 11  1  0  0  0  0
  8 10  1  0  0  0  0
  8 12  1  0  0  0  0
  9 13  1  0  0  0  0
 10 14  1  0  0  0  0
  1 15  1  0  0  0  0
  1 16  1  0  0  0  0
  2 17  1  0  0  0  0
  2 18  1  0  0  0  0
  3 19  1  0  0  0  0
  3 20  1  0  0  0  0
  4 21  1  0  0  0  0
  4 22  1  0  0  0  0
  5 23  1  0  0  0  0
  5 24  1  0  0  0  0
  5 25  1  0  0  0  0
  6 26  1  0  0  0  0
  6 27  1  0  0  0  0
  7 28  1  0  0  0  0
  7 29  1  0  0  0  0
  8 30  1  0  0  0  0
  8 31  1  0  0  0  0
  9 32  1  0  0  0  0
  9 33  1  0  0  0  0
 10 34  1  0  0  0  0
 13 35  1  0  0  0  0
 13 36  1  0  0  0  0
 14 37  1  0  0  0  0
M  END
> <FRED Chemgauss4 score>
-5.167185

$$$$
C87047543	P136261645
  -OEChem-05122015083D

 33 33  0     1  0  0  0  0  0999 V2000
   59.2755  161.2767   -1.4346 C   0  0  0  0  0  0  0  0  0  0  0  0
   58.1751  160.8000   -1.3701 C   0  0  0  0  0  0  0  0  0  0  0  0
   55.4403  158.6551   -2.6481 C   0  0  0  0  0  0  0  0  0  0  0  0
   56.4634  156.7045   -3.8428 C   0  0  0  0  0  0  0  0  0  0  0  0
   55.7430  155.5847   -4.5530 C   0  0  0  0  0  0  0  0  0  0  0  0
   55.4447  157.8289   -3.8925 C   0  0  1  0  0  0  0  0  0  0  0  0
   54.3139  155.8049   -4.0944 C   0  0  2  0  0  0  0  0  0  0  0  0
   56.6934  159.3932   -0.0020 C   0  0  0  0  0  0  0  0  0  0  0  0
   55.7718  161.3299   -1.3027 C   0  0  0  0  0  0  0  0  0  0  0  0
   53.2786  155.2216   -5.0357 C   0  0  0  0  0  0  0  0  0  0  0  0
   56.8215  160.2141   -1.2901 C   0  0  0  0  0  0  0  0  0  0  0  0
   51.9639  155.4609   -4.5324 N   0  0  0  0  0  0  0  0  0  0  0  0
   56.6131  159.3531   -2.4322 N   0  0  0  0  0  0  0  0  0  0  0  0
   54.4459  158.6636   -1.9321 O   0  0  0  0  0  0  0  0  0  0  0  0
   54.1492  157.2295   -4.0102 O   0  0  0  0  0  0  0  0  0  0  0  0
   60.2513  161.6994   -1.4918 H   0  0  0  0  0  0  0  0  0  0  0  0
   56.6907  156.4122   -2.8102 H   0  0  0  0  0  0  0  0  0  0  0  0
   57.4086  156.9758   -4.3225 H   0  0  0  0  0  0  0  0  0  0  0  0
   55.8334  155.7211   -5.6375 H   0  0  0  0  0  0  0  0  0  0  0  0
   56.1254  154.5925   -4.2982 H   0  0  0  0  0  0  0  0  0  0  0  0
   55.6010  158.4826   -4.7632 H   0  0  0  0  0  0  0  0  0  0  0  0
   54.1697  155.3982   -3.0856 H   0  0  0  0  0  0  0  0  0  0  0  0
   55.6968  158.9448    0.0854 H   0  0  0  0  0  0  0  0  0  0  0  0
   57.4217  158.5733    0.0218 H   0  0  0  0  0  0  0  0  0  0  0  0
   56.8642  160.0114    0.8871 H   0  0  0  0  0  0  0  0  0  0  0  0
   54.7544  160.9254   -1.2443 H   0  0  0  0  0  0  0  0  0  0  0  0
   55.9044  162.0114   -0.4534 H   0  0  0  0  0  0  0  0  0  0  0  0
   55.8444  161.9318   -2.2160 H   0  0  0  0  0  0  0  0  0  0  0  0
   53.4333  154.1503   -5.1189 H   0  0  0  0  0  0  0  0  0  0  0  0
   53.3713  155.6882   -6.0112 H   0  0  0  0  0  0  0  0  0  0  0  0
   51.7946  155.4249   -3.5347 H   0  0  0  0  0  0  0  0  0  0  0  0
   51.1761  155.4625   -5.1687 H   0  0  0  0  0  0  0  0  0  0  0  0
   57.3647  159.2566   -3.1083 H   0  0  0  0  0  0  0  0  0  0  0  0
  1  2  3  0  0  0  0
  2 11  1  0  0  0  0
  3  6  1  0  0  0  0
  3 13  1  0  0  0  0
  3 14  2  0  0  0  0
  4  5  1  0  0  0  0
  4  6  1  0  0  0  0
  5  7  1  0  0  0  0
  6 15  1  0  0  0  0
  7 10  1  0  0  0  0
  7 15  1  0  0  0  0
  8 11  1  0  0  0  0
  9 11  1  0  0  0  0
 10 12  1  0  0  0  0
 11 13  1  0  0  0  0
  1 16  1  0  0  0  0
  4 17  1  0  0  0  0
  4 18  1  0  0  0  0
  5 19  1  0  0  0  0
  5 20  1  0  0  0  0
  6 21  1  0  0  0  0
  7 22  1  0  0  0  0
  8 23  1  0  0  0  0
  8 24  1  0  0  0  0
  8 25  1  0  0  0  0
  9 26  1  0  0  0  0
  9 27  1  0  0  0  0
  9 28  1  0  0  0  0
 10 29  1  0  0  0  0
 10 30  1  0  0  0  0
 12 31  1  0  0  0  0
 12 32  1  0  0  0  0
 13 33  1  0  0  0  0
M  END
> <FRED Chemgauss4 score>
-5.166030

$$$$
C84211952	P131773227
  -OEChem-05122015083D

 30 30  0     1  0  0  0  0  0999 V2000
   55.3478  154.2990   -5.6328 C   0  0  0  0  0  0  0  0  0  0  0  0
   53.2234  155.8072   -3.7412 C   0  0  0  0  0  0  0  0  0  0  0  0
   56.2672  157.5359   -3.2472 C   0  0  0  0  0  0  0  0  0  0  0  0
   55.5185  156.2411   -2.9181 C   0  0  0  0  0  0  0  0  0  0  0  0
   56.6205  156.4061   -5.3664 C   0  0  0  0  0  0  0  0  0  0  0  0
   55.2250  155.7640   -5.3261 C   0  0  2  0  0  0  0  0  0  0  0  0
   55.4226  152.5507   -7.4171 C   0  0  0  0  0  0  0  0  0  0  0  0
   55.1667  154.9199   -8.0499 C   0  0  0  0  0  0  0  0  0  0  0  0
   56.6299  157.6893   -4.6633 N   0  0  0  0  0  0  0  0  0  0  0  0
   54.5990  155.8944   -3.9998 N   0  0  0  0  0  0  0  0  0  0  0  0
   52.4301  155.4712   -4.8201 N   0  0  0  0  0  0  0  0  0  0  0  0
   55.3138  153.9366   -6.9798 N   0  0  0  0  0  0  0  0  0  0  0  0
   55.4707  153.4976   -4.7026 O   0  0  0  0  0  0  0  0  0  0  0  0
   52.7184  156.0081   -2.6331 O   0  0  0  0  0  0  0  0  0  0  0  0
   55.6668  158.4141   -2.9206 H   0  0  0  0  0  0  0  0  0  0  0  0
   57.1950  157.5781   -2.6386 H   0  0  0  0  0  0  0  0  0  0  0  0
   56.2197  155.4157   -2.8066 H   0  0  0  0  0  0  0  0  0  0  0  0
   54.9865  156.3611   -1.9785 H   0  0  0  0  0  0  0  0  0  0  0  0
   57.3484  155.7440   -4.9044 H   0  0  0  0  0  0  0  0  0  0  0  0
   56.9150  156.5633   -6.4025 H   0  0  0  0  0  0  0  0  0  0  0  0
   54.6290  156.2198   -6.0969 H   0  0  0  0  0  0  0  0  0  0  0  0
   54.4299  152.0970   -7.4781 H   0  0  0  0  0  0  0  0  0  0  0  0
   56.0285  151.9777   -6.7100 H   0  0  0  0  0  0  0  0  0  0  0  0
   55.8933  152.5011   -8.4026 H   0  0  0  0  0  0  0  0  0  0  0  0
   56.1495  155.2692   -8.3769 H   0  0  0  0  0  0  0  0  0  0  0  0
   54.5875  155.7778   -7.6979 H   0  0  0  0  0  0  0  0  0  0  0  0
   54.6495  154.4745   -8.9040 H   0  0  0  0  0  0  0  0  0  0  0  0
   55.9632  158.3249   -5.1115 H   0  0  0  0  0  0  0  0  0  0  0  0
   52.8865  155.3125   -5.7126 H   0  0  0  0  0  0  0  0  0  0  0  0
   51.4237  155.3727   -4.7799 H   0  0  0  0  0  0  0  0  0  0  0  0
  1  6  1  0  0  0  0
  1 12  1  0  0  0  0
  1 13  2  0  0  0  0
  2 10  1  0  0  0  0
  2 11  1  0  0  0  0
  2 14  2  0  0  0  0
  3  4  1  0  0  0  0
  3  9  1  0  0  0  0
  4 10  1  0  0  0  0
  5  6  1  0  0  0  0
  5  9  1  0  0  0  0
  6 10  1  0  0  0  0
  7 12  1  0  0  0  0
  8 12  1  0  0  0  0
  3 15  1  0  0  0  0
  3 16  1  0  0  0  0
  4 17  1  0  0  0  0
  4 18  1  0  0  0  0
  5 19  1  0  0  0  0
  5 20  1  0  0  0  0
  6 21  1  0  0  0  0
  7 22  1  0  0  0  0
  7 23  1  0  0  0  0
  7 24  1  0  0  0  0
  8 25  1  0  0  0  0
  8 26  1  0  0  0  0
  8 27  1  0  0  0  0
  9 28  1  0  0  0  0
 11 29  1  0  0  0  0
 11 30  1  0  0  0  0
M  END
> <FRED Chemgauss4 score>
-5.160682

$$$$
C98234770	P156239239
  -OEChem-05122015083D

 19 19  0     0  0  0  0  0  0999 V2000
   54.4458  156.8835   -3.8805 C   0  0  0  0  0  0  0  0  0  0  0  0
   56.3940  156.6451   -5.2469 C   0  0  0  0  0  0  0  0  0  0  0  0
   55.1108  156.3387   -5.0179 C   0  0  0  0  0  0  0  0  0  0  0  0
   54.4265  155.4215   -5.9867 C   0  0  0  0  0  0  0  0  0  0  0  0
   58.5052  156.7090   -6.2650 C   0  0  0  0  0  0  0  0  0  0  0  0
   58.5202  157.5995   -4.9894 C   0  0  0  0  0  0  0  0  0  0  0  0
   53.9044  157.3270   -2.9548 N   0  0  0  0  0  0  0  0  0  0  0  0
   57.1476  156.1906   -6.2999 N   0  0  0  0  0  0  0  0  0  0  0  0
   57.1703  157.4652   -4.4671 N   0  0  0  0  0  0  0  0  0  0  0  0
   53.0726  155.6278   -6.1237 N   0  0  0  0  0  0  0  0  0  0  0  0
   55.0315  154.5518   -6.6096 O   0  0  0  0  0  0  0  0  0  0  0  0
   58.7222  157.2994   -7.1604 H   0  0  0  0  0  0  0  0  0  0  0  0
   59.2327  155.8954   -6.1860 H   0  0  0  0  0  0  0  0  0  0  0  0
   59.2579  157.2390   -4.2657 H   0  0  0  0  0  0  0  0  0  0  0  0
   58.7411  158.6417   -5.2393 H   0  0  0  0  0  0  0  0  0  0  0  0
   56.7843  155.5688   -7.0091 H   0  0  0  0  0  0  0  0  0  0  0  0
   56.8252  157.9187   -3.6321 H   0  0  0  0  0  0  0  0  0  0  0  0
   52.6165  156.3584   -5.5876 H   0  0  0  0  0  0  0  0  0  0  0  0
   52.5282  155.0526   -6.7584 H   0  0  0  0  0  0  0  0  0  0  0  0
  1  3  1  0  0  0  0
  1  7  3  0  0  0  0
  2  3  2  0  0  0  0
  2  8  1  0  0  0  0
  2  9  1  0  0  0  0
  3  4  1  0  0  0  0
  4 10  1  0  0  0  0
  4 11  2  0  0  0  0
  5  6  1  0  0  0  0
  5  8  1  0  0  0  0
  6  9  1  0  0  0  0
  5 12  1  0  0  0  0
  5 13  1  0  0  0  0
  6 14  1  0  0  0  0
  6 15  1  0  0  0  0
  8 16  1  0  0  0  0
  9 17  1  0  0  0  0
 10 18  1  0  0  0  0
 10 19  1  0  0  0  0
M  END
> <FRED Chemgauss4 score>
-5.157638

$$$$
C03881806	P04582166
  -OEChem-05122015083D

 22 22  0     1  0  0  0  0  0999 V2000
   54.7746  156.0460   -3.7620 C   0  0  0  0  0  0  0  0  0  0  0  0
   53.5219  156.5472   -4.4353 C   0  0  1  0  0  0  0  0  0  0  0  0
   53.6834  156.7867   -5.9267 C   0  0  1  0  0  0  0  0  0  0  0  0
   54.3595  155.6093   -6.6144 C   0  0  1  0  0  0  0  0  0  0  0  0
   55.7056  155.3299   -5.9534 C   0  0  1  0  0  0  0  0  0  0  0  0
   56.7832  156.3385   -6.3392 C   0  0  0  0  0  0  0  0  0  0  0  0
   54.9575  156.2125   -2.5576 O   0  0  0  0  0  0  0  0  0  0  0  0
   55.6297  155.3017   -4.5029 O   0  0  0  0  0  0  0  0  0  0  0  0
   52.5295  155.5612   -4.1827 O   0  0  0  0  0  0  0  0  0  0  0  0
   52.4215  157.0549   -6.5289 O   0  0  0  0  0  0  0  0  0  0  0  0
   53.5637  154.4288   -6.4993 O   0  0  0  0  0  0  0  0  0  0  0  0
   58.0503  155.7687   -6.0682 O   0  0  0  0  0  0  0  0  0  0  0  0
   53.2241  157.4547   -3.9234 H   0  0  0  0  0  0  0  0  0  0  0  0
   54.2829  157.7244   -6.0980 H   0  0  0  0  0  0  0  0  0  0  0  0
   54.4953  155.8260   -7.6738 H   0  0  0  0  0  0  0  0  0  0  0  0
   56.0764  154.3317   -6.2639 H   0  0  0  0  0  0  0  0  0  0  0  0
   56.6647  157.2501   -5.7540 H   0  0  0  0  0  0  0  0  0  0  0  0
   56.7114  156.5704   -7.4015 H   0  0  0  0  0  0  0  0  0  0  0  0
   52.4317  155.4974   -3.2177 H   0  0  0  0  0  0  0  0  0  0  0  0
   52.5939  157.1972   -7.4716 H   0  0  0  0  0  0  0  0  0  0  0  0
   54.0471  153.7210   -6.9547 H   0  0  0  0  0  0  0  0  0  0  0  0
   58.7198  156.4272   -6.3210 H   0  0  0  0  0  0  0  0  0  0  0  0
  1  2  1  0  0  0  0
  1  7  2  0  0  0  0
  1  8  1  0  0  0  0
  2  3  1  0  0  0  0
  2  9  1  0  0  0  0
  3  4  1  0  0  0  0
  3 10  1  0  0  0  0
  4  5  1  0  0  0  0
  4 11  1  0  0  0  0
  5  6  1  0  0  0  0
  5  8  1  0  0  0  0
  6 12  1  0  0  0  0
  2 13  1  0  0  0  0
  3 14  1  0  0  0  0
  4 15  1  0  0  0  0
  5 16  1  0  0  0  0
  6 17  1  0  0  0  0
  6 18  1  0  0  0  0
  9 19  1  0  0  0  0
 10 20  1  0  0  0  0
 11 21  1  0  0  0  0
 12 22  1  0  0  0  0
M  END
> <FRED Chemgauss4 score>
-5.155137

$$$$
C82915708	P129631184
  -OEChem-05122015083D

 27 27  0     1  0  0  0  0  0999 V2000
   57.7572  155.3443   -5.6611 C   0  0  0  0  0  0  0  0  0  0  0  0
   56.6275  156.0491   -5.3179 C   0  0  0  0  0  0  0  0  0  0  0  0
   56.1341  154.2755   -6.5293 C   0  0  0  0  0  0  0  0  0  0  0  0
   55.3000  153.2968   -7.2562 C   0  0  0  0  0  0  0  0  0  0  0  0
   53.5907  153.8357   -4.2179 C   0  0  0  0  0  0  0  0  0  0  0  0
   54.1320  155.7211   -5.7931 C   0  0  0  0  0  0  0  0  0  0  0  0
   53.9028  156.1586   -3.2423 C   0  0  0  0  0  0  0  0  0  0  0  0
   53.4289  155.3445   -4.4642 C   0  0  2  0  0  0  0  0  0  0  0  0
   57.4433  154.2415   -6.4154 N   0  0  0  0  0  0  0  0  0  0  0  0
   55.5959  155.3526   -5.8816 N   0  0  0  0  0  0  0  0  0  0  0  0
   53.7153  157.5974   -3.3797 N   0  0  0  0  0  0  0  0  0  0  0  0
   52.0212  155.5897   -4.5915 O   0  0  0  0  0  0  0  0  0  0  0  0
   58.7805  155.5749   -5.4034 H   0  0  0  0  0  0  0  0  0  0  0  0
   56.4754  156.9520   -4.7432 H   0  0  0  0  0  0  0  0  0  0  0  0
   54.9871  152.4736   -6.5938 H   0  0  0  0  0  0  0  0  0  0  0  0
   54.3886  153.7590   -7.6714 H   0  0  0  0  0  0  0  0  0  0  0  0
   55.8354  152.8539   -8.1129 H   0  0  0  0  0  0  0  0  0  0  0  0
   53.1022  153.5397   -3.2824 H   0  0  0  0  0  0  0  0  0  0  0  0
   53.1749  153.2362   -5.0334 H   0  0  0  0  0  0  0  0  0  0  0  0
   54.6490  153.5706   -4.1081 H   0  0  0  0  0  0  0  0  0  0  0  0
   54.0235  156.7976   -5.9809 H   0  0  0  0  0  0  0  0  0  0  0  0
   53.6216  155.2251   -6.6307 H   0  0  0  0  0  0  0  0  0  0  0  0
   54.9607  155.9519   -3.0413 H   0  0  0  0  0  0  0  0  0  0  0  0
   53.3719  155.8136   -2.3457 H   0  0  0  0  0  0  0  0  0  0  0  0
   53.9059  158.0156   -4.2659 H   0  0  0  0  0  0  0  0  0  0  0  0
   53.6040  158.1401   -2.5492 H   0  0  0  0  0  0  0  0  0  0  0  0
   51.7248  155.0588   -5.3436 H   0  0  0  0  0  0  0  0  0  0  0  0
  1  2  2  0  0  0  0
  1  9  1  0  0  0  0
  2 10  1  0  0  0  0
  3  4  1  0  0  0  0
  3  9  2  0  0  0  0
  3 10  1  0  0  0  0
  5  8  1  0  0  0  0
  6  8  1  0  0  0  0
  6 10  1  0  0  0  0
  7  8  1  0  0  0  0
  7 11  1  0  0  0  0
  8 12  1  0  0  0  0
  1 13  1  0  0  0  0
  2 14  1  0  0  0  0
  4 15  1  0  0  0  0
  4 16  1  0  0  0  0
  4 17  1  0  0  0  0
  5 18  1  0  0  0  0
  5 19  1  0  0  0  0
  5 20  1  0  0  0  0
  6 21  1  0  0  0  0
  6 22  1  0  0  0  0
  7 23  1  0  0  0  0
  7 24  1  0  0  0  0
 11 25  1  0  0  0  0
 11 26  1  0  0  0  0
 12 27  1  0  0  0  0
M  END
> <FRED Chemgauss4 score>
-5.151317

$$$$
C85619734	P134078263
  -OEChem-05122015083D

 30 30  0     1  0  0  0  0  0999 V2000
   54.8982  158.8005   -3.0217 C   0  0  0  0  0  0  0  0  0  0  0  0
   58.0259  160.8963   -0.3974 C   0  0  0  0  0  0  0  0  0  0  0  0
   57.4491  159.1024   -1.8865 C   0  0  0  0  0  0  0  0  0  0  0  0
   57.6027  161.8919   -1.4700 C   0  0  0  0  0  0  0  0  0  0  0  0
   57.0402  160.1358   -2.9398 C   0  0  1  0  0  0  0  0  0  0  0  0
   55.9066  159.6119   -3.8106 C   0  0  0  0  0  0  0  0  0  0  0  0
   53.4091  155.5323   -4.0000 C   0  0  0  0  0  0  0  0  0  0  0  0
   53.8990  156.5200   -2.9544 C   0  0  0  0  0  0  0  0  0  0  0  0
   58.4899  159.6529   -1.0148 N   0  0  0  0  0  0  0  0  0  0  0  0
   52.7035  156.1820   -5.0718 N   0  0  0  0  0  0  0  0  0  0  0  0
   54.7869  157.5103   -3.5192 N   0  0  0  0  0  0  0  0  0  0  0  0
   54.2721  159.2485   -2.0649 O   0  0  0  0  0  0  0  0  0  0  0  0
   56.5807  161.3296   -2.2947 O   0  0  0  0  0  0  0  0  0  0  0  0
   58.8260  161.3212    0.2174 H   0  0  0  0  0  0  0  0  0  0  0  0
   57.1833  160.6746    0.2685 H   0  0  0  0  0  0  0  0  0  0  0  0
   56.5880  158.8121   -1.2718 H   0  0  0  0  0  0  0  0  0  0  0  0
   57.8263  158.1939   -2.3682 H   0  0  0  0  0  0  0  0  0  0  0  0
   57.1933  162.7926   -1.0018 H   0  0  0  0  0  0  0  0  0  0  0  0
   58.4495  162.1995   -2.0956 H   0  0  0  0  0  0  0  0  0  0  0  0
   57.8910  160.3879   -3.5864 H   0  0  0  0  0  0  0  0  0  0  0  0
   56.3203  158.9809   -4.6034 H   0  0  0  0  0  0  0  0  0  0  0  0
   55.3894  160.4552   -4.2785 H   0  0  0  0  0  0  0  0  0  0  0  0
   52.7310  154.7921   -3.5635 H   0  0  0  0  0  0  0  0  0  0  0  0
   54.2582  155.0061   -4.4471 H   0  0  0  0  0  0  0  0  0  0  0  0
   53.0531  157.0592   -2.5169 H   0  0  0  0  0  0  0  0  0  0  0  0
   54.4410  156.0128   -2.1497 H   0  0  0  0  0  0  0  0  0  0  0  0
   59.3184  159.8524   -1.5760 H   0  0  0  0  0  0  0  0  0  0  0  0
   52.0836  156.9472   -4.8589 H   0  0  0  0  0  0  0  0  0  0  0  0
   52.6766  155.7438   -5.9786 H   0  0  0  0  0  0  0  0  0  0  0  0
   55.3568  157.2493   -4.3186 H   0  0  0  0  0  0  0  0  0  0  0  0
  1  6  1  0  0  0  0
  1 11  1  0  0  0  0
  1 12  2  0  0  0  0
  2  4  1  0  0  0  0
  2  9  1  0  0  0  0
  3  5  1  0  0  0  0
  3  9  1  0  0  0  0
  4 13  1  0  0  0  0
  5  6  1  0  0  0  0
  5 13  1  0  0  0  0
  7  8  1  0  0  0  0
  7 10  1  0  0  0  0
  8 11  1  0  0  0  0
  2 14  1  0  0  0  0
  2 15  1  0  0  0  0
  3 16  1  0  0  0  0
  3 17  1  0  0  0  0
  4 18  1  0  0  0  0
  4 19  1  0  0  0  0
  5 20  1  0  0  0  0
  6 21  1  0  0  0  0
  6 22  1  0  0  0  0
  7 23  1  0  0  0  0
  7 24  1  0  0  0  0
  8 25  1  0  0  0  0
  8 26  1  0  0  0  0
  9 27  1  0  0  0  0
 10 28  1  0  0  0  0
 10 29  1  0  0  0  0
 11 30  1  0  0  0  0
M  END
> <FRED Chemgauss4 score>
-5.147250

$$$$
C82510254	P128945651
  -OEChem-05122015083D

 27 28  0     1  0  0  0  0  0999 V2000
   56.0213  155.0286   -6.4057 C   0  0  0  0  0  0  0  0  0  0  0  0
   54.4463  155.0903   -5.0372 C   0  0  0  0  0  0  0  0  0  0  0  0
   59.6700  154.5370   -6.3794 C   0  0  0  0  0  0  0  0  0  0  0  0
   58.4945  155.3867   -5.9642 C   0  0  0  0  0  0  0  0  0  0  0  0
   58.9996  153.2290   -6.7388 C   0  0  0  0  0  0  0  0  0  0  0  0
   57.4232  154.9365   -6.9466 C   0  0  1  0  0  0  0  0  0  0  0  0
   54.2223  155.6813   -2.5856 C   0  0  0  0  0  0  0  0  0  0  0  0
   53.5664  155.1021   -3.8575 C   0  0  1  0  0  0  0  0  0  0  0  0
   55.7540  154.9783   -5.0675 N   0  0  0  0  0  0  0  0  0  0  0  0
   54.9613  155.1648   -7.2052 N   0  0  0  0  0  0  0  0  0  0  0  0
   53.9670  155.2018   -6.3051 N   0  0  0  0  0  0  0  0  0  0  0  0
   52.3169  155.8253   -4.0793 N   0  0  0  0  0  0  0  0  0  0  0  0
   57.7087  153.5611   -7.2711 O   0  0  0  0  0  0  0  0  0  0  0  0
   60.1445  154.9701   -7.2678 H   0  0  0  0  0  0  0  0  0  0  0  0
   60.4306  154.4286   -5.6019 H   0  0  0  0  0  0  0  0  0  0  0  0
   58.2144  155.1472   -4.9304 H   0  0  0  0  0  0  0  0  0  0  0  0
   58.6956  156.4610   -6.0163 H   0  0  0  0  0  0  0  0  0  0  0  0
   59.5660  152.6547   -7.4771 H   0  0  0  0  0  0  0  0  0  0  0  0
   58.8451  152.6060   -5.8514 H   0  0  0  0  0  0  0  0  0  0  0  0
   57.4744  155.4998   -7.8724 H   0  0  0  0  0  0  0  0  0  0  0  0
   54.5752  156.7016   -2.7709 H   0  0  0  0  0  0  0  0  0  0  0  0
   53.5233  155.7119   -1.7422 H   0  0  0  0  0  0  0  0  0  0  0  0
   55.0813  155.0787   -2.2697 H   0  0  0  0  0  0  0  0  0  0  0  0
   53.2369  154.0744   -3.5925 H   0  0  0  0  0  0  0  0  0  0  0  0
   53.0115  155.3026   -6.6269 H   0  0  0  0  0  0  0  0  0  0  0  0
   51.8426  156.1962   -3.2849 H   0  0  0  0  0  0  0  0  0  0  0  0
   51.8830  155.7478   -4.9734 H   0  0  0  0  0  0  0  0  0  0  0  0
  1  6  1  0  0  0  0
  1  9  1  0  0  0  0
  1 10  2  0  0  0  0
  2  8  1  0  0  0  0
  2  9  2  0  0  0  0
  2 11  1  0  0  0  0
  3  4  1  0  0  0  0
  3  5  1  0  0  0  0
  4  6  1  0  0  0  0
  5 13  1  0  0  0  0
  6 13  1  0  0  0  0
  7  8  1  0  0  0  0
  8 12  1  0  0  0  0
 10 11  1  0  0  0  0
  3 14  1  0  0  0  0
  3 15  1  0  0  0  0
  4 16  1  0  0  0  0
  4 17  1  0  0  0  0
  5 18  1  0  0  0  0
  5 19  1  0  0  0  0
  6 20  1  0  0  0  0
  7 21  1  0  0  0  0
  7 22  1  0  0  0  0
  7 23  1  0  0  0  0
  8 24  1  0  0  0  0
 11 25  1  0  0  0  0
 12 26  1  0  0  0  0
 12 27  1  0  0  0  0
M  END
> <FRED Chemgauss4 score>
-5.144907

$$$$
C56958872	P85524473
  -OEChem-05122015083D

 19 19  0     1  0  0  0  0  0999 V2000
   53.0438  155.5344   -3.8818 C   0  0  0  0  0  0  0  0  0  0  0  0
   55.9349  157.3413   -5.8047 C   0  0  0  0  0  0  0  0  0  0  0  0
   55.6635  156.5589   -4.5354 C   0  0  0  0  0  0  0  0  0  0  0  0
   55.6938  155.1106   -6.3599 C   0  0  0  0  0  0  0  0  0  0  0  0
   56.4695  156.3100   -6.6855 N   0  0  0  0  0  0  0  0  0  0  0  0
   55.1384  155.2690   -5.0046 N   0  0  2  0  0  0  0  0  0  0  0  0
   51.6773  155.5266   -4.0990 N   0  0  0  0  0  0  0  0  0  0  0  0
   53.7544  155.2951   -5.0477 N   0  0  0  0  0  0  0  0  0  0  0  0
   53.5396  155.7328   -2.7733 O   0  0  0  0  0  0  0  0  0  0  0  0
   55.0335  157.7963   -6.2122 H   0  0  0  0  0  0  0  0  0  0  0  0
   56.6852  158.1172   -5.6415 H   0  0  0  0  0  0  0  0  0  0  0  0
   56.5823  156.4237   -3.9328 H   0  0  0  0  0  0  0  0  0  0  0  0
   54.9277  157.0953   -3.8992 H   0  0  0  0  0  0  0  0  0  0  0  0
   54.9059  154.9817   -7.1175 H   0  0  0  0  0  0  0  0  0  0  0  0
   56.3365  154.2215   -6.3960 H   0  0  0  0  0  0  0  0  0  0  0  0
   56.2699  156.5688   -7.6503 H   0  0  0  0  0  0  0  0  0  0  0  0
   51.3227  155.3573   -5.0343 H   0  0  0  0  0  0  0  0  0  0  0  0
   51.0234  155.6870   -3.3402 H   0  0  0  0  0  0  0  0  0  0  0  0
   53.2921  155.1369   -5.9369 H   0  0  0  0  0  0  0  0  0  0  0  0
  1  7  1  0  0  0  0
  1  8  1  0  0  0  0
  1  9  2  0  0  0  0
  2  3  1  0  0  0  0
  2  5  1  0  0  0  0
  3  6  1  0  0  0  0
  4  5  1  0  0  0  0
  4  6  1  0  0  0  0
  6  8  1  0  0  0  0
  2 10  1  0  0  0  0
  2 11  1  0  0  0  0
  3 12  1  0  0  0  0
  3 13  1  0  0  0  0
  4 14  1  0  0  0  0
  4 15  1  0  0  0  0
  5 16  1  0  0  0  0
  7 17  1  0  0  0  0
  7 18  1  0  0  0  0
  8 19  1  0  0  0  0
M  END
> <FRED Chemgauss4 score>
-5.143870

$$$$
C54504056	P82019658
  -OEChem-05122015083D

 27 29  0     1  0  0  0  0  0999 V2000
   55.0846  158.2139   -3.1388 C   0  0  0  0  0  0  0  0  0  0  0  0
   54.3253  156.4755   -4.1925 C   0  0  0  0  0  0  0  0  0  0  0  0
   56.3764  154.5311   -6.3789 C   0  0  0  0  0  0  0  0  0  0  0  0
   55.4454  153.3532   -6.3061 C   0  0  0  0  0  0  0  0  0  0  0  0
   57.8737  157.3467   -4.7705 C   0  0  0  0  0  0  0  0  0  0  0  0
   57.3915  158.7159   -5.1346 C   0  0  0  0  0  0  0  0  0  0  0  0
   55.3686  154.4373   -5.2669 C   0  0  0  0  0  0  0  0  0  0  0  0
   56.4420  157.5434   -5.2111 C   0  0  0  0  0  0  0  0  0  0  0  0
   54.2018  155.3623   -5.2325 C   0  0  1  0  0  0  0  0  0  0  0  0
   54.0180  157.7968   -2.4949 N   0  0  0  0  0  0  0  0  0  0  0  0
   53.5348  156.6908   -3.1653 N   0  0  0  0  0  0  0  0  0  0  0  0
   55.3148  157.4109   -4.2144 N   0  0  0  0  0  0  0  0  0  0  0  0
   52.9509  154.6374   -5.0375 N   0  0  0  0  0  0  0  0  0  0  0  0
   55.7044  159.0601   -2.8783 H   0  0  0  0  0  0  0  0  0  0  0  0
   57.4210  154.3619   -6.1483 H   0  0  0  0  0  0  0  0  0  0  0  0
   56.2017  155.2644   -7.1566 H   0  0  0  0  0  0  0  0  0  0  0  0
   54.6466  153.2967   -7.0354 H   0  0  0  0  0  0  0  0  0  0  0  0
   55.8666  152.3954   -6.0266 H   0  0  0  0  0  0  0  0  0  0  0  0
   58.5483  156.8495   -5.4568 H   0  0  0  0  0  0  0  0  0  0  0  0
   58.0683  157.1436   -3.7243 H   0  0  0  0  0  0  0  0  0  0  0  0
   57.2626  159.4337   -4.3337 H   0  0  0  0  0  0  0  0  0  0  0  0
   57.7395  159.1425   -6.0674 H   0  0  0  0  0  0  0  0  0  0  0  0
   55.7356  154.2084   -4.2736 H   0  0  0  0  0  0  0  0  0  0  0  0
   56.1510  157.1846   -6.1740 H   0  0  0  0  0  0  0  0  0  0  0  0
   54.0802  155.8451   -6.2235 H   0  0  0  0  0  0  0  0  0  0  0  0
   52.8612  153.7339   -5.4510 H   0  0  0  0  0  0  0  0  0  0  0  0
   52.1665  155.1402   -4.6806 H   0  0  0  0  0  0  0  0  0  0  0  0
  1 10  2  0  0  0  0
  1 12  1  0  0  0  0
  2  9  1  0  0  0  0
  2 11  2  0  0  0  0
  2 12  1  0  0  0  0
  3  4  1  0  0  0  0
  3  7  1  0  0  0  0
  4  7  1  0  0  0  0
  5  6  1  0  0  0  0
  5  8  1  0  0  0  0
  6  8  1  0  0  0  0
  7  9  1  0  0  0  0
  8 12  1  0  0  0  0
  9 13  1  0  0  0  0
 10 11  1  0  0  0  0
  1 14  1  0  0  0  0
  3 15  1  0  0  0  0
  3 16  1  0  0  0  0
  4 17  1  0  0  0  0
  4 18  1  0  0  0  0
  5 19  1  0  0  0  0
  5 20  1  0  0  0  0
  6 21  1  0  0  0  0
  6 22  1  0  0  0  0
  7 23  1  0  0  0  0
  8 24  1  0  0  0  0
  9 25  1  0  0  0  0
 13 26  1  0  0  0  0
 13 27  1  0  0  0  0
M  END
> <FRED Chemgauss4 score>
-5.132582

$$$$
C87395652	P136731630
  -OEChem-05122015083D

 26 27  0     1  0  0  0  0  0999 V2000
   54.6201  161.6678   -4.0600 C   0  0  0  0  0  0  0  0  0  0  0  0
   55.0003  161.7893   -5.3758 C   0  0  0  0  0  0  0  0  0  0  0  0
   57.2008  154.2756   -6.9295 C   0  0  0  0  0  0  0  0  0  0  0  0
   55.9220  154.2904   -6.4132 C   0  0  0  0  0  0  0  0  0  0  0  0
   54.9420  159.6785   -4.7453 C   0  0  0  0  0  0  0  0  0  0  0  0
   56.5353  156.3146   -5.8332 C   0  0  0  0  0  0  0  0  0  0  0  0
   54.9527  153.1788   -6.4791 C   0  0  0  0  0  0  0  0  0  0  0  0
   56.4953  157.7084   -5.2491 C   0  0  0  0  0  0  0  0  0  0  0  0
   55.0696  158.1700   -4.8732 C   0  0  1  0  0  0  0  0  0  0  0  0
   54.5861  160.3513   -3.6735 N   0  0  0  0  0  0  0  0  0  0  0  0
   55.5388  155.4586   -5.7838 N   0  0  0  0  0  0  0  0  0  0  0  0
   55.2034  160.5067   -5.8011 N   0  0  0  0  0  0  0  0  0  0  0  0
   54.6481  157.5011   -3.6348 N   0  0  0  0  0  0  0  0  0  0  0  0
   57.9629  155.7809   -6.6219 S   0  0  0  0  0  0  0  0  0  0  0  0
   54.3707  162.4613   -3.3710 H   0  0  0  0  0  0  0  0  0  0  0  0
   55.1398  162.6401   -6.0265 H   0  0  0  0  0  0  0  0  0  0  0  0
   57.7100  153.4809   -7.4564 H   0  0  0  0  0  0  0  0  0  0  0  0
   55.0484  152.5161   -5.6036 H   0  0  0  0  0  0  0  0  0  0  0  0
   53.9108  153.5402   -6.5138 H   0  0  0  0  0  0  0  0  0  0  0  0
   55.0917  152.5621   -7.3834 H   0  0  0  0  0  0  0  0  0  0  0  0
   56.9240  158.3929   -5.9945 H   0  0  0  0  0  0  0  0  0  0  0  0
   57.1679  157.7645   -4.3830 H   0  0  0  0  0  0  0  0  0  0  0  0
   54.3778  157.8306   -5.6547 H   0  0  0  0  0  0  0  0  0  0  0  0
   55.4914  160.2234   -6.7285 H   0  0  0  0  0  0  0  0  0  0  0  0
   54.9722  156.5759   -3.4783 H   0  0  0  0  0  0  0  0  0  0  0  0
   53.9080  157.9142   -3.1177 H   0  0  0  0  0  0  0  0  0  0  0  0
  1  2  2  0  0  0  0
  1 10  1  0  0  0  0
  2 12  1  0  0  0  0
  3  4  2  0  0  0  0
  3 14  1  0  0  0  0
  4  7  1  0  0  0  0
  4 11  1  0  0  0  0
  5  9  1  0  0  0  0
  5 10  2  0  0  0  0
  5 12  1  0  0  0  0
  6  8  1  0  0  0  0
  6 11  2  0  0  0  0
  6 14  1  0  0  0  0
  8  9  1  0  0  0  0
  9 13  1  0  0  0  0
  1 15  1  0  0  0  0
  2 16  1  0  0  0  0
  3 17  1  0  0  0  0
  7 18  1  0  0  0  0
  7 19  1  0  0  0  0
  7 20  1  0  0  0  0
  8 21  1  0  0  0  0
  8 22  1  0  0  0  0
  9 23  1  0  0  0  0
 12 24  1  0  0  0  0
 13 25  1  0  0  0  0
 13 26  1  0  0  0  0
M  END
> <FRED Chemgauss4 score>
-5.132373

$$$$
C94238561	P147683886
  -OEChem-05122015083D

 30 30  0     1  0  0  0  0  0999 V2000
   55.1301  155.8843   -6.0464 C   0  0  0  0  0  0  0  0  0  0  0  0
   53.7937  155.6459   -5.8277 C   0  0  0  0  0  0  0  0  0  0  0  0
   54.3624  157.6811   -5.2022 C   0  0  0  0  0  0  0  0  0  0  0  0
   55.5907  159.2665   -2.6396 C   0  0  0  0  0  0  0  0  0  0  0  0
   56.9359  161.3128   -1.9198 C   0  0  0  0  0  0  0  0  0  0  0  0
   56.2813  160.3013   -4.8847 C   0  0  0  0  0  0  0  0  0  0  0  0
   54.1817  159.0645   -4.6475 C   0  0  0  0  0  0  0  0  0  0  0  0
   56.8492  159.7813   -1.8994 C   0  0  1  0  0  0  0  0  0  0  0  0
   56.8241  159.3286   -0.4276 C   0  0  0  0  0  0  0  0  0  0  0  0
   55.4779  157.1528   -5.6547 N   0  0  0  0  0  0  0  0  0  0  0  0
   53.3155  156.8058   -5.2862 N   0  0  0  0  0  0  0  0  0  0  0  0
   58.0235  159.1579   -2.5135 N   0  0  0  0  0  0  0  0  0  0  0  0
   55.3937  159.5548   -3.9954 N   0  0  0  0  0  0  0  0  0  0  0  0
   54.7520  158.6187   -1.9963 O   0  0  0  0  0  0  0  0  0  0  0  0
   56.7995  157.9788   -0.3264 F   0  0  0  0  0  0  0  0  0  0  0  0
   57.9192  159.7577    0.2408 F   0  0  0  0  0  0  0  0  0  0  0  0
   55.7372  159.7982    0.2264 F   0  0  0  0  0  0  0  0  0  0  0  0
   55.8596  155.2065   -6.4646 H   0  0  0  0  0  0  0  0  0  0  0  0
   53.1604  154.7882   -6.0016 H   0  0  0  0  0  0  0  0  0  0  0  0
   57.8138  161.7090   -1.4052 H   0  0  0  0  0  0  0  0  0  0  0  0
   56.9853  161.6817   -2.9512 H   0  0  0  0  0  0  0  0  0  0  0  0
   56.0592  161.7686   -1.4447 H   0  0  0  0  0  0  0  0  0  0  0  0
   56.9875  159.6212   -5.3682 H   0  0  0  0  0  0  0  0  0  0  0  0
   56.8439  161.0480   -4.3177 H   0  0  0  0  0  0  0  0  0  0  0  0
   55.7001  160.8124   -5.6569 H   0  0  0  0  0  0  0  0  0  0  0  0
   53.9191  159.7687   -5.4445 H   0  0  0  0  0  0  0  0  0  0  0  0
   53.3716  159.0899   -3.9111 H   0  0  0  0  0  0  0  0  0  0  0  0
   52.3609  156.9837   -5.0028 H   0  0  0  0  0  0  0  0  0  0  0  0
   58.3942  159.5753   -3.3371 H   0  0  0  0  0  0  0  0  0  0  0  0
   58.2763  158.2442   -2.2110 H   0  0  0  0  0  0  0  0  0  0  0  0
  1  2  2  0  0  0  0
  1 10  1  0  0  0  0
  2 11  1  0  0  0  0
  3  7  1  0  0  0  0
  3 10  2  0  0  0  0
  3 11  1  0  0  0  0
  4  8  1  0  0  0  0
  4 13  1  0  0  0  0
  4 14  2  0  0  0  0
  5  8  1  0  0  0  0
  6 13  1  0  0  0  0
  7 13  1  0  0  0  0
  8  9  1  0  0  0  0
  8 12  1  0  0  0  0
  9 15  1  0  0  0  0
  9 16  1  0  0  0  0
  9 17  1  0  0  0  0
  1 18  1  0  0  0  0
  2 19  1  0  0  0  0
  5 20  1  0  0  0  0
  5 21  1  0  0  0  0
  5 22  1  0  0  0  0
  6 23  1  0  0  0  0
  6 24  1  0  0  0  0
  6 25  1  0  0  0  0
  7 26  1  0  0  0  0
  7 27  1  0  0  0  0
 11 28  1  0  0  0  0
 12 29  1  0  0  0  0
 12 30  1  0  0  0  0
M  END
> <FRED Chemgauss4 score>
-5.126066

$$$$
C04787862	P06905685
  -OEChem-05122015083D

 36 36  0     1  0  0  0  0  0999 V2000
   58.7334  157.1688   -6.5902 C   0  0  0  0  0  0  0  0  0  0  0  0
   54.5908  156.6998   -3.3128 C   0  0  0  0  0  0  0  0  0  0  0  0
   56.3785  156.3727   -6.5699 C   0  0  2  0  0  0  0  0  0  0  0  0
   55.0914  156.5222   -5.7416 C   0  0  1  0  0  0  0  0  0  0  0  0
   56.7290  154.8981   -6.8275 C   0  0  2  0  0  0  0  0  0  0  0  0
   55.5010  154.1589   -7.3863 C   0  0  1  0  0  0  0  0  0  0  0  0
   53.9734  155.6898   -6.3849 C   0  0  1  0  0  0  0  0  0  0  0  0
   59.7298  157.9706   -5.8205 C   0  0  0  0  0  0  0  0  0  0  0  0
   54.9577  156.1502   -1.9743 C   0  0  0  0  0  0  0  0  0  0  0  0
   55.7306  152.6613   -7.5513 C   0  0  0  0  0  0  0  0  0  0  0  0
   57.4875  157.0950   -5.9949 N   0  0  0  0  0  0  0  0  0  0  0  0
   55.2917  156.1367   -4.3594 N   0  0  0  0  0  0  0  0  0  0  0  0
   59.0638  156.6518   -7.6510 O   0  0  0  0  0  0  0  0  0  0  0  0
   53.7329  157.5711   -3.3937 O   0  0  0  0  0  0  0  0  0  0  0  0
   54.3741  154.3242   -6.5140 O   0  0  0  0  0  0  0  0  0  0  0  0
   57.1530  154.2928   -5.6061 O   0  0  0  0  0  0  0  0  0  0  0  0
   52.7909  155.8032   -5.5981 O   0  0  0  0  0  0  0  0  0  0  0  0
   56.8018  152.4652   -8.4569 O   0  0  0  0  0  0  0  0  0  0  0  0
   56.2029  156.8464   -7.5446 H   0  0  0  0  0  0  0  0  0  0  0  0
   54.7878  157.5748   -5.6980 H   0  0  0  0  0  0  0  0  0  0  0  0
   57.5674  154.8331   -7.5314 H   0  0  0  0  0  0  0  0  0  0  0  0
   55.2407  154.5740   -8.3688 H   0  0  0  0  0  0  0  0  0  0  0  0
   53.7412  156.0890   -7.3807 H   0  0  0  0  0  0  0  0  0  0  0  0
   60.2992  157.3576   -5.1035 H   0  0  0  0  0  0  0  0  0  0  0  0
   60.4873  158.4366   -6.4710 H   0  0  0  0  0  0  0  0  0  0  0  0
   59.3106  158.7979   -5.2257 H   0  0  0  0  0  0  0  0  0  0  0  0
   55.7798  156.7104   -1.5007 H   0  0  0  0  0  0  0  0  0  0  0  0
   54.1224  156.1970   -1.2572 H   0  0  0  0  0  0  0  0  0  0  0  0
   55.2841  155.0979   -1.9703 H   0  0  0  0  0  0  0  0  0  0  0  0
   54.8325  152.1874   -7.9489 H   0  0  0  0  0  0  0  0  0  0  0  0
   55.9862  152.2143   -6.5900 H   0  0  0  0  0  0  0  0  0  0  0  0
   57.3460  157.5728   -5.1091 H   0  0  0  0  0  0  0  0  0  0  0  0
   55.9783  155.4203   -4.1516 H   0  0  0  0  0  0  0  0  0  0  0  0
   57.9312  154.7888   -5.3102 H   0  0  0  0  0  0  0  0  0  0  0  0
   52.1138  155.2655   -6.0373 H   0  0  0  0  0  0  0  0  0  0  0  0
   56.9284  151.5052   -8.5451 H   0  0  0  0  0  0  0  0  0  0  0  0
  1  8  1  0  0  0  0
  1 11  1  0  0  0  0
  1 13  2  0  0  0  0
  2  9  1  0  0  0  0
  2 12  1  0  0  0  0
  2 14  2  0  0  0  0
  3  4  1  0  0  0  0
  3  5  1  0  0  0  0
  3 11  1  0  0  0  0
  4  7  1  0  0  0  0
  4 12  1  0  0  0  0
  5  6  1  0  0  0  0
  5 16  1  0  0  0  0
  6 10  1  0  0  0  0
  6 15  1  0  0  0  0
  7 15  1  0  0  0  0
  7 17  1  0  0  0  0
 10 18  1  0  0  0  0
  3 19  1  0  0  0  0
  4 20  1  0  0  0  0
  5 21  1  0  0  0  0
  6 22  1  0  0  0  0
  7 23  1  0  0  0  0
  8 24  1  0  0  0  0
  8 25  1  0  0  0  0
  8 26  1  0  0  0  0
  9 27  1  0  0  0  0
  9 28  1  0  0  0  0
  9 29  1  0  0  0  0
 10 30  1  0  0  0  0
 10 31  1  0  0  0  0
 11 32  1  0  0  0  0
 12 33  1  0  0  0  0
 16 34  1  0  0  0  0
 17 35  1  0  0  0  0
 18 36  1  0  0  0  0
M  END
> <FRED Chemgauss4 score>
-5.113176

$$$$
C79002563	P123337484
  -OEChem-05122015083D

 32 32  0     1  0  0  0  0  0999 V2000
   59.2198  161.0521   -2.4427 C   0  0  0  0  0  0  0  0  0  0  0  0
   57.9447  161.3406   -2.9286 C   0  0  0  0  0  0  0  0  0  0  0  0
   58.2785  159.3977   -0.9547 C   0  0  0  0  0  0  0  0  0  0  0  0
   57.0033  159.6862   -1.4407 C   0  0  0  0  0  0  0  0  0  0  0  0
   59.3868  160.0806   -1.4557 C   0  0  0  0  0  0  0  0  0  0  0  0
   56.8364  160.6577   -2.4276 C   0  0  0  0  0  0  0  0  0  0  0  0
   53.9335  156.1860   -3.7291 C   0  0  0  0  0  0  0  0  0  0  0  0
   55.4712  155.9015   -1.1390 C   0  0  0  0  0  0  0  0  0  0  0  0
   55.8406  158.9256   -0.8717 C   0  0  0  0  0  0  0  0  0  0  0  0
   55.4281  156.4658   -3.6191 C   0  0  0  0  0  0  0  0  0  0  0  0
   55.8198  156.9337   -2.2105 C   0  0  1  0  0  0  0  0  0  0  0  0
   53.5518  154.9703   -3.4687 N   0  0  0  0  0  0  0  0  0  0  0  0
   53.1404  157.2514   -4.0862 N   0  0  0  0  0  0  0  0  0  0  0  0
   55.1231  158.1831   -1.8950 N   0  0  0  0  0  0  0  0  0  0  0  0
   52.1646  154.8625   -3.6035 O   0  0  0  0  0  0  0  0  0  0  0  0
   60.6114  159.8041   -0.9888 F   0  0  0  0  0  0  0  0  0  0  0  0
   55.1230  161.0850   -3.1196 Br  0  0  0  0  0  0  0  0  0  0  0  0
   60.0833  161.5837   -2.8320 H   0  0  0  0  0  0  0  0  0  0  0  0
   57.8344  162.1009   -3.6975 H   0  0  0  0  0  0  0  0  0  0  0  0
   58.4205  158.6428   -0.1857 H   0  0  0  0  0  0  0  0  0  0  0  0
   54.3981  155.6785   -1.1450 H   0  0  0  0  0  0  0  0  0  0  0  0
   56.0118  154.9608   -1.2932 H   0  0  0  0  0  0  0  0  0  0  0  0
   55.7179  156.2732   -0.1393 H   0  0  0  0  0  0  0  0  0  0  0  0
   56.1801  158.2121   -0.1130 H   0  0  0  0  0  0  0  0  0  0  0  0
   55.1282  159.6014   -0.3870 H   0  0  0  0  0  0  0  0  0  0  0  0
   55.9509  155.5320   -3.8654 H   0  0  0  0  0  0  0  0  0  0  0  0
   55.7219  157.2051   -4.3743 H   0  0  0  0  0  0  0  0  0  0  0  0
   56.8984  157.1251   -2.1679 H   0  0  0  0  0  0  0  0  0  0  0  0
   53.5252  158.1734   -4.2619 H   0  0  0  0  0  0  0  0  0  0  0  0
   52.1356  157.1456   -4.1754 H   0  0  0  0  0  0  0  0  0  0  0  0
   54.1879  157.9614   -1.5629 H   0  0  0  0  0  0  0  0  0  0  0  0
   52.0196  153.9264   -3.3856 H   0  0  0  0  0  0  0  0  0  0  0  0
  1  2  2  0  0  0  0
  1  5  1  0  0  0  0
  2  6  1  0  0  0  0
  3  4  1  0  0  0  0
  3  5  2  0  0  0  0
  4  6  2  0  0  0  0
  4  9  1  0  0  0  0
  5 16  1  0  0  0  0
  6 17  1  0  0  0  0
  7 10  1  0  0  0  0
  7 12  2  0  0  0  0
  7 13  1  0  0  0  0
  8 11  1  0  0  0  0
  9 14  1  0  0  0  0
 10 11  1  0  0  0  0
 11 14  1  0  0  0  0
 12 15  1  0  0  0  0
  1 18  1  0  0  0  0
  2 19  1  0  0  0  0
  3 20  1  0  0  0  0
  8 21  1  0  0  0  0
  8 22  1  0  0  0  0
  8 23  1  0  0  0  0
  9 24  1  0  0  0  0
  9 25  1  0  0  0  0
 10 26  1  0  0  0  0
 10 27  1  0  0  0  0
 11 28  1  0  0  0  0
 13 29  1  0  0  0  0
 13 30  1  0  0  0  0
 14 31  1  0  0  0  0
 15 32  1  0  0  0  0
M  END
> <FRED Chemgauss4 score>
-5.113012

$$$$
C51925824	P77777539
  -OEChem-05122015083D

 36 37  0     1  0  0  0  0  0999 V2000
   55.4718  153.9801   -6.5542 C   0  0  0  0  0  0  0  0  0  0  0  0
   56.7085  153.9411   -7.1981 C   0  0  0  0  0  0  0  0  0  0  0  0
   55.2177  154.9561   -5.5906 C   0  0  0  0  0  0  0  0  0  0  0  0
   57.6912  154.8781   -6.8783 C   0  0  0  0  0  0  0  0  0  0  0  0
   55.8692  158.7306   -6.0645 C   0  0  0  0  0  0  0  0  0  0  0  0
   56.2003  155.8931   -5.2708 C   0  0  0  0  0  0  0  0  0  0  0  0
   57.4370  155.8541   -5.9147 C   0  0  0  0  0  0  0  0  0  0  0  0
   56.5987  160.4456   -5.0364 C   0  0  0  0  0  0  0  0  0  0  0  0
   56.5757  159.4384   -4.1007 C   0  0  0  0  0  0  0  0  0  0  0  0
   57.0189  161.8454   -4.8646 C   0  0  0  0  0  0  0  0  0  0  0  0
   56.9459  159.4128   -2.6745 C   0  0  0  0  0  0  0  0  0  0  0  0
   54.5434  155.7032   -2.3999 C   0  0  0  0  0  0  0  0  0  0  0  0
   55.8820  156.9448   -4.2075 C   0  0  2  0  0  0  0  0  0  0  0  0
   54.4951  156.7604   -3.5106 C   0  0  2  0  0  0  0  0  0  0  0  0
   56.1575  159.9987   -6.2567 N   0  0  0  0  0  0  0  0  0  0  0  0
   56.1057  158.3462   -4.7740 N   0  0  0  0  0  0  0  0  0  0  0  0
   54.0579  158.0191   -2.8897 N   0  0  0  0  0  0  0  0  0  0  0  0
   58.6770  156.9966   -5.5456 Cl  0  0  0  0  0  0  0  0  0  0  0  0
   54.7065  153.2509   -6.8040 H   0  0  0  0  0  0  0  0  0  0  0  0
   56.9056  153.1818   -7.9492 H   0  0  0  0  0  0  0  0  0  0  0  0
   54.2505  154.9778   -5.0952 H   0  0  0  0  0  0  0  0  0  0  0  0
   58.6492  154.8347   -7.3901 H   0  0  0  0  0  0  0  0  0  0  0  0
   55.4900  158.0487   -6.8133 H   0  0  0  0  0  0  0  0  0  0  0  0
   58.0962  161.9698   -5.0715 H   0  0  0  0  0  0  0  0  0  0  0  0
   56.4713  162.5319   -5.5355 H   0  0  0  0  0  0  0  0  0  0  0  0
   56.8335  162.2150   -3.8397 H   0  0  0  0  0  0  0  0  0  0  0  0
   56.0841  159.6642   -2.0333 H   0  0  0  0  0  0  0  0  0  0  0  0
   57.3181  158.4221   -2.3589 H   0  0  0  0  0  0  0  0  0  0  0  0
   57.7545  160.1281   -2.4416 H   0  0  0  0  0  0  0  0  0  0  0  0
   55.2935  155.9505   -1.6426 H   0  0  0  0  0  0  0  0  0  0  0  0
   53.5801  155.6344   -1.8810 H   0  0  0  0  0  0  0  0  0  0  0  0
   54.7806  154.7109   -2.8003 H   0  0  0  0  0  0  0  0  0  0  0  0
   56.6205  156.8083   -3.4015 H   0  0  0  0  0  0  0  0  0  0  0  0
   53.7297  156.4586   -4.2345 H   0  0  0  0  0  0  0  0  0  0  0  0
   53.4236  157.9598   -2.1288 H   0  0  0  0  0  0  0  0  0  0  0  0
   54.2485  158.8622   -3.3773 H   0  0  0  0  0  0  0  0  0  0  0  0
  1  2  1  0  0  0  0
  1  3  2  0  0  0  0
  2  4  2  0  0  0  0
  3  6  1  0  0  0  0
  4  7  1  0  0  0  0
  5 15  2  0  0  0  0
  5 16  1  0  0  0  0
  6  7  2  0  0  0  0
  6 13  1  0  0  0  0
  7 18  1  0  0  0  0
  8  9  2  0  0  0  0
  8 10  1  0  0  0  0
  8 15  1  0  0  0  0
  9 11  1  0  0  0  0
  9 16  1  0  0  0  0
 12 14  1  0  0  0  0
 13 14  1  0  0  0  0
 13 16  1  0  0  0  0
 14 17  1  0  0  0  0
  1 19  1  0  0  0  0
  2 20  1  0  0  0  0
  3 21  1  0  0  0  0
  4 22  1  0  0  0  0
  5 23  1  0  0  0  0
 10 24  1  0  0  0  0
 10 25  1  0  0  0  0
 10 26  1  0  0  0  0
 11 27  1  0  0  0  0
 11 28  1  0  0  0  0
 11 29  1  0  0  0  0
 12 30  1  0  0  0  0
 12 31  1  0  0  0  0
 12 32  1  0  0  0  0
 13 33  1  0  0  0  0
 14 34  1  0  0  0  0
 17 35  1  0  0  0  0
 17 36  1  0  0  0  0
M  END
> <FRED Chemgauss4 score>
-5.110579

$$$$
C82928769	P129631281
  -OEChem-05122015083D

 29 29  0     1  0  0  0  0  0999 V2000
   55.2694  152.8429   -5.9794 C   0  0  0  0  0  0  0  0  0  0  0  0
   55.4524  154.6227   -7.0545 C   0  0  0  0  0  0  0  0  0  0  0  0
   57.2310  156.5485   -4.9595 C   0  0  0  0  0  0  0  0  0  0  0  0
   52.9496  155.5193   -4.6525 C   0  0  0  0  0  0  0  0  0  0  0  0
   55.1037  156.2992   -3.6198 C   0  0  0  0  0  0  0  0  0  0  0  0
   53.0123  157.8371   -3.6127 C   0  0  0  0  0  0  0  0  0  0  0  0
   55.7333  156.2132   -5.0341 C   0  0  2  0  0  0  0  0  0  0  0  0
   53.5568  156.3947   -3.5444 C   0  0  1  0  0  0  0  0  0  0  0  0
   55.2810  153.3363   -7.2526 N   0  0  0  0  0  0  0  0  0  0  0  0
   55.4228  153.7431   -5.0060 N   0  0  0  0  0  0  0  0  0  0  0  0
   55.5377  154.8730   -5.7204 N   0  0  0  0  0  0  0  0  0  0  0  0
   53.3394  158.5328   -4.8512 N   0  0  0  0  0  0  0  0  0  0  0  0
   53.1303  155.8303   -2.2986 O   0  0  0  0  0  0  0  0  0  0  0  0
   55.1471  151.7942   -5.7536 H   0  0  0  0  0  0  0  0  0  0  0  0
   55.5220  155.3891   -7.8135 H   0  0  0  0  0  0  0  0  0  0  0  0
   57.7616  155.8083   -4.3506 H   0  0  0  0  0  0  0  0  0  0  0  0
   57.6846  156.5450   -5.9572 H   0  0  0  0  0  0  0  0  0  0  0  0
   57.4082  157.5338   -4.5148 H   0  0  0  0  0  0  0  0  0  0  0  0
   51.8545  155.5656   -4.6255 H   0  0  0  0  0  0  0  0  0  0  0  0
   53.2473  155.8808   -5.6434 H   0  0  0  0  0  0  0  0  0  0  0  0
   53.2494  154.4707   -4.5623 H   0  0  0  0  0  0  0  0  0  0  0  0
   55.5308  157.1660   -3.0972 H   0  0  0  0  0  0  0  0  0  0  0  0
   55.4240  155.4156   -3.0510 H   0  0  0  0  0  0  0  0  0  0  0  0
   51.9217  157.8233   -3.4898 H   0  0  0  0  0  0  0  0  0  0  0  0
   53.3838  158.4207   -2.7631 H   0  0  0  0  0  0  0  0  0  0  0  0
   55.2823  156.9962   -5.6561 H   0  0  0  0  0  0  0  0  0  0  0  0
   53.3848  159.5298   -4.8343 H   0  0  0  0  0  0  0  0  0  0  0  0
   53.3057  158.0167   -5.7050 H   0  0  0  0  0  0  0  0  0  0  0  0
   52.1632  155.8626   -2.3060 H   0  0  0  0  0  0  0  0  0  0  0  0
  1  9  1  0  0  0  0
  1 10  2  0  0  0  0
  2  9  2  0  0  0  0
  2 11  1  0  0  0  0
  3  7  1  0  0  0  0
  4  8  1  0  0  0  0
  5  7  1  0  0  0  0
  5  8  1  0  0  0  0
  6  8  1  0  0  0  0
  6 12  1  0  0  0  0
  7 11  1  0  0  0  0
  8 13  1  0  0  0  0
 10 11  1  0  0  0  0
  1 14  1  0  0  0  0
  2 15  1  0  0  0  0
  3 16  1  0  0  0  0
  3 17  1  0  0  0  0
  3 18  1  0  0  0  0
  4 19  1  0  0  0  0
  4 20  1  0  0  0  0
  4 21  1  0  0  0  0
  5 22  1  0  0  0  0
  5 23  1  0  0  0  0
  6 24  1  0  0  0  0
  6 25  1  0  0  0  0
  7 26  1  0  0  0  0
 12 27  1  0  0  0  0
 12 28  1  0  0  0  0
 13 29  1  0  0  0  0
M  END
> <FRED Chemgauss4 score>
-5.108577

$$$$
C82995805	P129751681
  -OEChem-05122015083D

 32 32  0     1  0  0  0  0  0999 V2000
   55.5808  158.8171   -2.3710 C   0  0  0  0  0  0  0  0  0  0  0  0
   57.5986  161.5743   -0.0180 C   0  0  0  0  0  0  0  0  0  0  0  0
   57.0560  159.2754   -0.4247 C   0  0  0  0  0  0  0  0  0  0  0  0
   57.2470  161.8935   -1.4670 C   0  0  0  0  0  0  0  0  0  0  0  0
   56.7210  159.6384   -1.8675 C   0  0  2  0  0  0  0  0  0  0  0  0
   54.1369  154.1597   -4.8276 C   0  0  0  0  0  0  0  0  0  0  0  0
   54.4204  156.1160   -3.2633 C   0  0  0  0  0  0  0  0  0  0  0  0
   54.9057  157.2432   -4.1736 C   0  0  0  0  0  0  0  0  0  0  0  0
   53.4214  155.1705   -3.9406 C   0  0  1  0  0  0  0  0  0  0  0  0
   58.0682  160.1909    0.1118 N   0  0  0  0  0  0  0  0  0  0  0  0
   55.8656  158.1031   -3.5193 N   0  0  0  0  0  0  0  0  0  0  0  0
   54.5161  158.8252   -1.7642 O   0  0  0  0  0  0  0  0  0  0  0  0
   56.2560  160.9840   -1.9497 O   0  0  0  0  0  0  0  0  0  0  0  0
   52.5262  155.9339   -4.7441 O   0  0  0  0  0  0  0  0  0  0  0  0
   58.3761  162.2573    0.3393 H   0  0  0  0  0  0  0  0  0  0  0  0
   56.7203  161.7147    0.6235 H   0  0  0  0  0  0  0  0  0  0  0  0
   56.1620  159.3222    0.2103 H   0  0  0  0  0  0  0  0  0  0  0  0
   57.4284  158.2464   -0.3671 H   0  0  0  0  0  0  0  0  0  0  0  0
   56.8335  162.9045   -1.5373 H   0  0  0  0  0  0  0  0  0  0  0  0
   58.1296  161.8492   -2.1167 H   0  0  0  0  0  0  0  0  0  0  0  0
   57.5752  159.4981   -2.5403 H   0  0  0  0  0  0  0  0  0  0  0  0
   54.7372  154.6645   -5.5925 H   0  0  0  0  0  0  0  0  0  0  0  0
   54.7906  153.5076   -4.2405 H   0  0  0  0  0  0  0  0  0  0  0  0
   53.4108  153.5355   -5.3598 H   0  0  0  0  0  0  0  0  0  0  0  0
   55.3013  155.5416   -2.9493 H   0  0  0  0  0  0  0  0  0  0  0  0
   53.9673  156.5441   -2.3609 H   0  0  0  0  0  0  0  0  0  0  0  0
   55.4031  156.8221   -5.0533 H   0  0  0  0  0  0  0  0  0  0  0  0
   54.0779  157.8678   -4.5220 H   0  0  0  0  0  0  0  0  0  0  0  0
   52.8305  154.6384   -3.1873 H   0  0  0  0  0  0  0  0  0  0  0  0
   58.9271  160.0839   -0.4288 H   0  0  0  0  0  0  0  0  0  0  0  0
   56.7938  158.1867   -3.9228 H   0  0  0  0  0  0  0  0  0  0  0  0
   51.8999  155.3048   -5.1347 H   0  0  0  0  0  0  0  0  0  0  0  0
  1  5  1  0  0  0  0
  1 11  1  0  0  0  0
  1 12  2  0  0  0  0
  2  4  1  0  0  0  0
  2 10  1  0  0  0  0
  3  5  1  0  0  0  0
  3 10  1  0  0  0  0
  4 13  1  0  0  0  0
  5 13  1  0  0  0  0
  6  9  1  0  0  0  0
  7  8  1  0  0  0  0
  7  9  1  0  0  0  0
  8 11  1  0  0  0  0
  9 14  1  0  0  0  0
  2 15  1  0  0  0  0
  2 16  1  0  0  0  0
  3 17  1  0  0  0  0
  3 18  1  0  0  0  0
  4 19  1  0  0  0  0
  4 20  1  0  0  0  0
  5 21  1  0  0  0  0
  6 22  1  0  0  0  0
  6 23  1  0  0  0  0
  6 24  1  0  0  0  0
  7 25  1  0  0  0  0
  7 26  1  0  0  0  0
  8 27  1  0  0  0  0
  8 28  1  0  0  0  0
  9 29  1  0  0  0  0
 10 30  1  0  0  0  0
 11 31  1  0  0  0  0
 14 32  1  0  0  0  0
M  END
> <FRED Chemgauss4 score>
-5.108465

$$$$
C88001846	P137647841
  -OEChem-05122015083D

 30 31  0     1  0  0  0  0  0999 V2000
   55.2663  155.0916   -4.5835 C   0  0  0  0  0  0  0  0  0  0  0  0
   54.7794  157.1710   -4.1989 C   0  0  0  0  0  0  0  0  0  0  0  0
   57.7680  156.3490   -6.3130 C   0  0  0  0  0  0  0  0  0  0  0  0
   57.4322  157.7831   -6.0479 C   0  0  0  0  0  0  0  0  0  0  0  0
   56.3212  156.7740   -6.2206 C   0  0  0  0  0  0  0  0  0  0  0  0
   55.8530  153.8962   -5.2159 C   0  0  0  0  0  0  0  0  0  0  0  0
   56.1350  158.2626   -1.6958 C   0  0  0  0  0  0  0  0  0  0  0  0
   54.5417  159.3906   -3.0043 C   0  0  0  0  0  0  0  0  0  0  0  0
   54.7404  158.6770   -4.3442 C   0  0  2  0  0  0  0  0  0  0  0  0
   54.4808  155.1248   -3.5307 N   0  0  0  0  0  0  0  0  0  0  0  0
   54.1711  156.4478   -3.2860 N   0  0  0  0  0  0  0  0  0  0  0  0
   55.4806  156.3578   -5.0367 N   0  0  0  0  0  0  0  0  0  0  0  0
   53.7145  159.0799   -5.2823 N   0  0  0  0  0  0  0  0  0  0  0  0
   55.7939  159.4852   -2.3330 O   0  0  0  0  0  0  0  0  0  0  0  0
   58.1566  156.0936   -7.2913 H   0  0  0  0  0  0  0  0  0  0  0  0
   58.1893  155.7721   -5.4986 H   0  0  0  0  0  0  0  0  0  0  0  0
   57.6282  158.1709   -5.0557 H   0  0  0  0  0  0  0  0  0  0  0  0
   57.5926  158.4956   -6.8477 H   0  0  0  0  0  0  0  0  0  0  0  0
   55.7406  156.8034   -7.1167 H   0  0  0  0  0  0  0  0  0  0  0  0
   55.1891  153.4921   -5.9985 H   0  0  0  0  0  0  0  0  0  0  0  0
   56.8293  154.1108   -5.6848 H   0  0  0  0  0  0  0  0  0  0  0  0
   56.0385  153.0885   -4.4861 H   0  0  0  0  0  0  0  0  0  0  0  0
   57.0986  158.3699   -1.1918 H   0  0  0  0  0  0  0  0  0  0  0  0
   56.1883  157.4649   -2.4410 H   0  0  0  0  0  0  0  0  0  0  0  0
   55.3660  158.0192   -0.9588 H   0  0  0  0  0  0  0  0  0  0  0  0
   54.1689  160.4096   -3.1551 H   0  0  0  0  0  0  0  0  0  0  0  0
   53.8426  158.8538   -2.3538 H   0  0  0  0  0  0  0  0  0  0  0  0
   55.6823  159.0256   -4.7865 H   0  0  0  0  0  0  0  0  0  0  0  0
   53.5293  158.4940   -6.0751 H   0  0  0  0  0  0  0  0  0  0  0  0
   53.3600  160.0172   -5.2356 H   0  0  0  0  0  0  0  0  0  0  0  0
  1  6  1  0  0  0  0
  1 10  2  0  0  0  0
  1 12  1  0  0  0  0
  2  9  1  0  0  0  0
  2 11  2  0  0  0  0
  2 12  1  0  0  0  0
  3  4  1  0  0  0  0
  3  5  1  0  0  0  0
  4  5  1  0  0  0  0
  5 12  1  0  0  0  0
  7 14  1  0  0  0  0
  8  9  1  0  0  0  0
  8 14  1  0  0  0  0
  9 13  1  0  0  0  0
 10 11  1  0  0  0  0
  3 15  1  0  0  0  0
  3 16  1  0  0  0  0
  4 17  1  0  0  0  0
  4 18  1  0  0  0  0
  5 19  1  0  0  0  0
  6 20  1  0  0  0  0
  6 21  1  0  0  0  0
  6 22  1  0  0  0  0
  7 23  1  0  0  0  0
  7 24  1  0  0  0  0
  7 25  1  0  0  0  0
  8 26  1  0  0  0  0
  8 27  1  0  0  0  0
  9 28  1  0  0  0  0
 13 29  1  0  0  0  0
 13 30  1  0  0  0  0
M  END
> <FRED Chemgauss4 score>
-5.103206

$$$$
C53134864	P79655074
  -OEChem-05122015083D

 27 28  0     1  0  0  0  0  0999 V2000
   55.0392  153.4337   -7.2206 C   0  0  0  0  0  0  0  0  0  0  0  0
   57.3335  153.9821   -6.7517 C   0  0  0  0  0  0  0  0  0  0  0  0
   55.4962  152.6587   -8.2743 C   0  0  0  0  0  0  0  0  0  0  0  0
   57.6878  153.1823   -7.8263 C   0  0  0  0  0  0  0  0  0  0  0  0
   56.2028  158.4178   -4.4073 C   0  0  0  0  0  0  0  0  0  0  0  0
   54.4498  157.2310   -3.4200 C   0  0  0  0  0  0  0  0  0  0  0  0
   55.3748  159.0284   -2.3804 C   0  0  0  0  0  0  0  0  0  0  0  0
   55.9818  154.1048   -6.4497 C   0  0  0  0  0  0  0  0  0  0  0  0
   55.3080  157.3706   -4.4916 C   0  0  0  0  0  0  0  0  0  0  0  0
   55.5449  154.9533   -5.3041 C   0  0  0  0  0  0  0  0  0  0  0  0
   55.2689  156.4333   -5.6865 C   0  0  1  0  0  0  0  0  0  0  0  0
   56.8008  152.5152   -8.5981 N   0  0  0  0  0  0  0  0  0  0  0  0
   56.2641  159.2692   -3.3625 N   0  0  0  0  0  0  0  0  0  0  0  0
   54.4558  158.0447   -2.3438 N   0  0  0  0  0  0  0  0  0  0  0  0
   53.9878  156.5428   -6.3973 N   0  0  0  0  0  0  0  0  0  0  0  0
   53.9774  153.5096   -7.0116 H   0  0  0  0  0  0  0  0  0  0  0  0
   58.0923  154.4929   -6.1689 H   0  0  0  0  0  0  0  0  0  0  0  0
   54.8011  152.1160   -8.9068 H   0  0  0  0  0  0  0  0  0  0  0  0
   58.7290  153.0539   -8.1029 H   0  0  0  0  0  0  0  0  0  0  0  0
   56.9197  158.6129   -5.1988 H   0  0  0  0  0  0  0  0  0  0  0  0
   53.7088  156.4383   -3.3897 H   0  0  0  0  0  0  0  0  0  0  0  0
   55.4030  159.6969   -1.5286 H   0  0  0  0  0  0  0  0  0  0  0  0
   56.3293  154.9255   -4.5255 H   0  0  0  0  0  0  0  0  0  0  0  0
   54.6554  154.5177   -4.8139 H   0  0  0  0  0  0  0  0  0  0  0  0
   56.0417  156.7502   -6.3986 H   0  0  0  0  0  0  0  0  0  0  0  0
   53.7189  155.7857   -6.9805 H   0  0  0  0  0  0  0  0  0  0  0  0
   53.5528  157.4348   -6.4270 H   0  0  0  0  0  0  0  0  0  0  0  0
  1  3  1  0  0  0  0
  1  8  2  0  0  0  0
  2  4  2  0  0  0  0
  2  8  1  0  0  0  0
  3 12  2  0  0  0  0
  4 12  1  0  0  0  0
  5  9  1  0  0  0  0
  5 13  2  0  0  0  0
  6  9  2  0  0  0  0
  6 14  1  0  0  0  0
  7 13  1  0  0  0  0
  7 14  2  0  0  0  0
  8 10  1  0  0  0  0
  9 11  1  0  0  0  0
 10 11  1  0  0  0  0
 11 15  1  0  0  0  0
  1 16  1  0  0  0  0
  2 17  1  0  0  0  0
  3 18  1  0  0  0  0
  4 19  1  0  0  0  0
  5 20  1  0  0  0  0
  6 21  1  0  0  0  0
  7 22  1  0  0  0  0
 10 23  1  0  0  0  0
 10 24  1  0  0  0  0
 11 25  1  0  0  0  0
 15 26  1  0  0  0  0
 15 27  1  0  0  0  0
M  END
> <FRED Chemgauss4 score>
-5.102924

$$$$
C70911053	P109452755
  -OEChem-05122015083D

 29 29  0     0  0  0  0  0  0999 V2000
   61.2099  157.9292   -8.4061 C   0  0  0  0  0  0  0  0  0  0  0  0
   60.5609  156.7661   -7.7085 C   0  0  0  0  0  0  0  0  0  0  0  0
   59.7300  157.7194   -8.5122 C   0  0  0  0  0  0  0  0  0  0  0  0
   55.5956  158.0240   -2.7862 C   0  0  0  0  0  0  0  0  0  0  0  0
   57.2766  156.7110   -6.6901 C   0  0  0  0  0  0  0  0  0  0  0  0
   56.2708  157.2287   -3.8886 C   0  0  0  0  0  0  0  0  0  0  0  0
   55.8990  156.4963   -6.0904 C   0  0  0  0  0  0  0  0  0  0  0  0
   54.1574  157.6759   -2.7321 N   0  0  0  0  0  0  0  0  0  0  0  0
   57.3197  158.0152   -7.3755 N   0  0  0  0  0  0  0  0  0  0  0  0
   59.4451  158.8959   -6.1917 O   0  0  0  0  0  0  0  0  0  0  0  0
   58.5979  160.0565   -8.2633 O   0  0  0  0  0  0  0  0  0  0  0  0
   55.6388  157.5115   -5.1294 O   0  0  0  0  0  0  0  0  0  0  0  0
   58.8066  158.8459   -7.4923 S   0  0  0  0  0  0  0  0  0  0  0  0
   61.5935  158.7351   -7.7928 H   0  0  0  0  0  0  0  0  0  0  0  0
   61.8117  157.7166   -9.2818 H   0  0  0  0  0  0  0  0  0  0  0  0
   60.7297  155.7774   -8.1187 H   0  0  0  0  0  0  0  0  0  0  0  0
   60.5092  156.7914   -6.6271 H   0  0  0  0  0  0  0  0  0  0  0  0
   59.3110  157.3898   -9.4518 H   0  0  0  0  0  0  0  0  0  0  0  0
   56.0387  157.8040   -1.8097 H   0  0  0  0  0  0  0  0  0  0  0  0
   55.6798  159.0968   -2.9843 H   0  0  0  0  0  0  0  0  0  0  0  0
   58.0514  156.7042   -5.9169 H   0  0  0  0  0  0  0  0  0  0  0  0
   57.4976  155.9317   -7.4256 H   0  0  0  0  0  0  0  0  0  0  0  0
   56.1684  156.1566   -3.6939 H   0  0  0  0  0  0  0  0  0  0  0  0
   57.3341  157.4767   -3.9705 H   0  0  0  0  0  0  0  0  0  0  0  0
   55.8592  155.5293   -5.5795 H   0  0  0  0  0  0  0  0  0  0  0  0
   55.1172  156.5277   -6.8563 H   0  0  0  0  0  0  0  0  0  0  0  0
   53.5463  158.3514   -2.3508 H   0  0  0  0  0  0  0  0  0  0  0  0
   53.9188  156.7299   -2.8852 H   0  0  0  0  0  0  0  0  0  0  0  0
   56.6839  158.0847   -8.1806 H   0  0  0  0  0  0  0  0  0  0  0  0
  1  2  1  0  0  0  0
  1  3  1  0  0  0  0
  2  3  1  0  0  0  0
  3 13  1  0  0  0  0
  4  6  1  0  0  0  0
  4  8  1  0  0  0  0
  5  7  1  0  0  0  0
  5  9  1  0  0  0  0
  6 12  1  0  0  0  0
  7 12  1  0  0  0  0
  9 13  1  0  0  0  0
 10 13  2  0  0  0  0
 11 13  2  0  0  0  0
  1 14  1  0  0  0  0
  1 15  1  0  0  0  0
  2 16  1  0  0  0  0
  2 17  1  0  0  0  0
  3 18  1  0  0  0  0
  4 19  1  0  0  0  0
  4 20  1  0  0  0  0
  5 21  1  0  0  0  0
  5 22  1  0  0  0  0
  6 23  1  0  0  0  0
  6 24  1  0  0  0  0
  7 25  1  0  0  0  0
  7 26  1  0  0  0  0
  8 27  1  0  0  0  0
  8 28  1  0  0  0  0
  9 29  1  0  0  0  0
M  END
> <FRED Chemgauss4 score>
-5.099324

$$$$
C86752271	P135821318
  -OEChem-05122015083D

 27 28  0     1  0  0  0  0  0999 V2000
   55.5604  154.8881   -5.0022 C   0  0  0  0  0  0  0  0  0  0  0  0
   56.5130  159.3714   -0.2948 C   0  0  0  0  0  0  0  0  0  0  0  0
   57.7343  159.8724   -0.6793 C   0  0  0  0  0  0  0  0  0  0  0  0
   55.6119  154.5049   -6.3222 C   0  0  0  0  0  0  0  0  0  0  0  0
   55.4709  156.6796   -6.3285 C   0  0  0  0  0  0  0  0  0  0  0  0
   55.4687  156.3005   -5.0063 C   0  0  0  0  0  0  0  0  0  0  0  0
   56.7452  158.8024   -2.3327 C   0  0  0  0  0  0  0  0  0  0  0  0
   59.0001  159.7976   -2.8341 C   0  0  0  0  0  0  0  0  0  0  0  0
   56.5458  158.2314   -3.7181 C   0  0  0  0  0  0  0  0  0  0  0  0
   55.3847  157.2150   -3.7961 C   0  0  1  0  0  0  0  0  0  0  0  0
   55.9025  158.7061   -1.3284 N   0  0  0  0  0  0  0  0  0  0  0  0
   57.8694  159.4996   -1.9870 N   0  0  0  0  0  0  0  0  0  0  0  0
   54.1027  157.9320   -3.7684 N   0  0  0  0  0  0  0  0  0  0  0  0
   55.5580  155.5910   -7.1371 O   0  0  0  0  0  0  0  0  0  0  0  0
   55.5858  154.2286   -4.1465 H   0  0  0  0  0  0  0  0  0  0  0  0
   56.0423  159.4557    0.6738 H   0  0  0  0  0  0  0  0  0  0  0  0
   58.4898  160.4402   -0.1545 H   0  0  0  0  0  0  0  0  0  0  0  0
   55.6839  153.5495   -6.8211 H   0  0  0  0  0  0  0  0  0  0  0  0
   55.4194  157.6328   -6.8348 H   0  0  0  0  0  0  0  0  0  0  0  0
   59.7217  158.9827   -2.7326 H   0  0  0  0  0  0  0  0  0  0  0  0
   58.6651  159.8845   -3.8714 H   0  0  0  0  0  0  0  0  0  0  0  0
   59.4461  160.7458   -2.5212 H   0  0  0  0  0  0  0  0  0  0  0  0
   57.4861  157.7461   -4.0154 H   0  0  0  0  0  0  0  0  0  0  0  0
   56.4015  159.0490   -4.4366 H   0  0  0  0  0  0  0  0  0  0  0  0
   55.4069  156.5932   -2.8919 H   0  0  0  0  0  0  0  0  0  0  0  0
   54.0527  158.7648   -3.2303 H   0  0  0  0  0  0  0  0  0  0  0  0
   53.3019  157.4561   -4.1119 H   0  0  0  0  0  0  0  0  0  0  0  0
  1  4  2  0  0  0  0
  1  6  1  0  0  0  0
  2  3  2  0  0  0  0
  2 11  1  0  0  0  0
  3 12  1  0  0  0  0
  4 14  1  0  0  0  0
  5  6  2  0  0  0  0
  5 14  1  0  0  0  0
  6 10  1  0  0  0  0
  7  9  1  0  0  0  0
  7 11  2  0  0  0  0
  7 12  1  0  0  0  0
  8 12  1  0  0  0  0
  9 10  1  0  0  0  0
 10 13  1  0  0  0  0
  1 15  1  0  0  0  0
  2 16  1  0  0  0  0
  3 17  1  0  0  0  0
  4 18  1  0  0  0  0
  5 19  1  0  0  0  0
  8 20  1  0  0  0  0
  8 21  1  0  0  0  0
  8 22  1  0  0  0  0
  9 23  1  0  0  0  0
  9 24  1  0  0  0  0
 10 25  1  0  0  0  0
 13 26  1  0  0  0  0
 13 27  1  0  0  0  0
M  END
> <FRED Chemgauss4 score>
-5.089262

$$$$
C51003953	P128525420
  -OEChem-05122015083D

 24 24  0     0  0  0  0  0  0999 V2000
   55.8038  154.3532   -5.5942 C   0  0  0  0  0  0  0  0  0  0  0  0
   56.1434  155.6253   -5.9905 C   0  0  0  0  0  0  0  0  0  0  0  0
   55.1953  155.6269   -4.0011 C   0  0  0  0  0  0  0  0  0  0  0  0
   54.6566  156.1672   -2.7362 C   0  0  0  0  0  0  0  0  0  0  0  0
   54.5804  158.6261   -4.6833 C   0  0  0  0  0  0  0  0  0  0  0  0
   55.8948  157.8799   -4.9094 C   0  0  0  0  0  0  0  0  0  0  0  0
   53.5676  158.4191   -5.8026 C   0  0  0  0  0  0  0  0  0  0  0  0
   55.2138  154.3611   -4.3551 N   0  0  0  0  0  0  0  0  0  0  0  0
   55.7470  156.4303   -4.9600 N   0  0  0  0  0  0  0  0  0  0  0  0
   53.2109  156.2006   -2.7099 N   0  0  0  0  0  0  0  0  0  0  0  0
   52.3814  159.1347   -5.4827 O   0  0  0  0  0  0  0  0  0  0  0  0
   55.9541  153.4321   -6.1381 H   0  0  0  0  0  0  0  0  0  0  0  0
   56.6148  156.0116   -6.8833 H   0  0  0  0  0  0  0  0  0  0  0  0
   54.9781  155.5698   -1.8649 H   0  0  0  0  0  0  0  0  0  0  0  0
   55.0008  157.1982   -2.5429 H   0  0  0  0  0  0  0  0  0  0  0  0
   54.7925  159.6992   -4.5943 H   0  0  0  0  0  0  0  0  0  0  0  0
   54.1277  158.3356   -3.7269 H   0  0  0  0  0  0  0  0  0  0  0  0
   56.3767  158.2116   -5.8366 H   0  0  0  0  0  0  0  0  0  0  0  0
   56.5938  158.0985   -4.0927 H   0  0  0  0  0  0  0  0  0  0  0  0
   53.3085  157.3620   -5.9145 H   0  0  0  0  0  0  0  0  0  0  0  0
   53.9546  158.7962   -6.7545 H   0  0  0  0  0  0  0  0  0  0  0  0
   52.7539  156.8791   -2.1284 H   0  0  0  0  0  0  0  0  0  0  0  0
   52.7028  155.4297   -3.1033 H   0  0  0  0  0  0  0  0  0  0  0  0
   51.7585  158.9835   -6.2117 H   0  0  0  0  0  0  0  0  0  0  0  0
  1  2  2  0  0  0  0
  1  8  1  0  0  0  0
  2  9  1  0  0  0  0
  3  4  1  0  0  0  0
  3  8  2  0  0  0  0
  3  9  1  0  0  0  0
  4 10  1  0  0  0  0
  5  6  1  0  0  0  0
  5  7  1  0  0  0  0
  6  9  1  0  0  0  0
  7 11  1  0  0  0  0
  1 12  1  0  0  0  0
  2 13  1  0  0  0  0
  4 14  1  0  0  0  0
  4 15  1  0  0  0  0
  5 16  1  0  0  0  0
  5 17  1  0  0  0  0
  6 18  1  0  0  0  0
  6 19  1  0  0  0  0
  7 20  1  0  0  0  0
  7 21  1  0  0  0  0
 10 22  1  0  0  0  0
 10 23  1  0  0  0  0
 11 24  1  0  0  0  0
M  END
> <FRED Chemgauss4 score>
-5.084150

$$$$
C39118757	P59262028
  -OEChem-05122015083D

 17 17  0     0  0  0  0  0  0999 V2000
   54.2747  156.1205   -3.0150 C   0  0  0  0  0  0  0  0  0  0  0  0
   56.4550  157.0291   -6.4477 C   0  0  0  0  0  0  0  0  0  0  0  0
   57.1223  157.8566   -7.5153 C   0  0  0  0  0  0  0  0  0  0  0  0
   56.7894  157.3962   -5.0174 C   0  0  0  0  0  0  0  0  0  0  0  0
   54.2110  157.4268   -2.6301 N   0  0  0  0  0  0  0  0  0  0  0  0
   55.2057  155.8694   -3.9389 N   0  0  0  0  0  0  0  0  0  0  0  0
   55.1415  158.0608   -3.3328 N   0  0  0  0  0  0  0  0  0  0  0  0
   55.7007  157.1060   -4.0891 N   0  0  0  0  0  0  0  0  0  0  0  0
   53.4259  155.2224   -2.4569 N   0  0  0  0  0  0  0  0  0  0  0  0
   55.6868  156.1149   -6.7440 O   0  0  0  0  0  0  0  0  0  0  0  0
   58.0768  157.4012   -7.7931 H   0  0  0  0  0  0  0  0  0  0  0  0
   56.4809  157.9001   -8.3989 H   0  0  0  0  0  0  0  0  0  0  0  0
   57.3092  158.8635   -7.1343 H   0  0  0  0  0  0  0  0  0  0  0  0
   57.0104  158.4669   -4.9569 H   0  0  0  0  0  0  0  0  0  0  0  0
   57.6712  156.8346   -4.6919 H   0  0  0  0  0  0  0  0  0  0  0  0
   52.7655  155.4883   -1.7158 H   0  0  0  0  0  0  0  0  0  0  0  0
   53.4711  154.2209   -2.6828 H   0  0  0  0  0  0  0  0  0  0  0  0
  1  5  1  0  0  0  0
  1  6  2  0  0  0  0
  1  9  1  0  0  0  0
  2  3  1  0  0  0  0
  2  4  1  0  0  0  0
  2 10  2  0  0  0  0
  4  8  1  0  0  0  0
  5  7  2  0  0  0  0
  6  8  1  0  0  0  0
  7  8  1  0  0  0  0
  3 11  1  0  0  0  0
  3 12  1  0  0  0  0
  3 13  1  0  0  0  0
  4 14  1  0  0  0  0
  4 15  1  0  0  0  0
  9 16  1  0  0  0  0
  9 17  1  0  0  0  0
M  END
> <FRED Chemgauss4 score>
-5.082862

$$$$
C43444164	P128429507
  -OEChem-05122015083D

 28 27  0     0  0  0  0  0  0999 V2000
   61.3069  157.8699   -8.7125 C   0  0  0  0  0  0  0  0  0  0  0  0
   54.5034  154.6521   -5.8602 C   0  0  0  0  0  0  0  0  0  0  0  0
   55.9784  154.3734   -6.1172 C   0  0  0  0  0  0  0  0  0  0  0  0
   58.1814  155.2843   -6.3960 C   0  0  0  0  0  0  0  0  0  0  0  0
   59.0155  156.5495   -6.5074 C   0  0  0  0  0  0  0  0  0  0  0  0
   54.2605  155.3810   -4.5442 C   0  0  0  0  0  0  0  0  0  0  0  0
   56.7667  155.5747   -6.1583 N   0  0  0  0  0  0  0  0  0  0  0  0
   60.4010  156.2606   -6.7612 N   0  0  0  0  0  0  0  0  0  0  0  0
   59.9014  155.7278   -9.2475 O   0  0  0  0  0  0  0  0  0  0  0  0
   62.2586  155.4621   -8.3936 O   0  0  0  0  0  0  0  0  0  0  0  0
   52.8624  155.5812   -4.3835 O   0  0  0  0  0  0  0  0  0  0  0  0
   60.9836  156.1530   -8.3814 S   0  0  0  0  0  0  0  0  0  0  0  0
   61.6910  157.9581   -9.7300 H   0  0  0  0  0  0  0  0  0  0  0  0
   60.3722  158.4228   -8.6074 H   0  0  0  0  0  0  0  0  0  0  0  0
   62.0453  158.2262   -7.9927 H   0  0  0  0  0  0  0  0  0  0  0  0
   54.1009  155.2579   -6.6816 H   0  0  0  0  0  0  0  0  0  0  0  0
   53.9296  153.7167   -5.8687 H   0  0  0  0  0  0  0  0  0  0  0  0
   56.3885  153.7501   -5.3165 H   0  0  0  0  0  0  0  0  0  0  0  0
   56.1200  153.8475   -7.0668 H   0  0  0  0  0  0  0  0  0  0  0  0
   58.5273  154.6488   -5.5746 H   0  0  0  0  0  0  0  0  0  0  0  0
   58.2397  154.7124   -7.3274 H   0  0  0  0  0  0  0  0  0  0  0  0
   58.6587  157.1666   -7.3377 H   0  0  0  0  0  0  0  0  0  0  0  0
   58.9659  157.1420   -5.5882 H   0  0  0  0  0  0  0  0  0  0  0  0
   54.6247  154.7967   -3.6936 H   0  0  0  0  0  0  0  0  0  0  0  0
   54.7536  156.3584   -4.5431 H   0  0  0  0  0  0  0  0  0  0  0  0
   56.4339  156.1919   -6.9074 H   0  0  0  0  0  0  0  0  0  0  0  0
   61.0808  156.6683   -6.0827 H   0  0  0  0  0  0  0  0  0  0  0  0
   52.7412  156.0458   -3.5397 H   0  0  0  0  0  0  0  0  0  0  0  0
  1 12  1  0  0  0  0
  2  3  1  0  0  0  0
  2  6  1  0  0  0  0
  3  7  1  0  0  0  0
  4  5  1  0  0  0  0
  4  7  1  0  0  0  0
  5  8  1  0  0  0  0
  6 11  1  0  0  0  0
  8 12  1  0  0  0  0
  9 12  2  0  0  0  0
 10 12  2  0  0  0  0
  1 13  1  0  0  0  0
  1 14  1  0  0  0  0
  1 15  1  0  0  0  0
  2 16  1  0  0  0  0
  2 17  1  0  0  0  0
  3 18  1  0  0  0  0
  3 19  1  0  0  0  0
  4 20  1  0  0  0  0
  4 21  1  0  0  0  0
  5 22  1  0  0  0  0
  5 23  1  0  0  0  0
  6 24  1  0  0  0  0
  6 25  1  0  0  0  0
  7 26  1  0  0  0  0
  8 27  1  0  0  0  0
 11 28  1  0  0  0  0
M  END
> <FRED Chemgauss4 score>
-5.079838

$$$$
C26471307	P39070368
  -OEChem-05122015083D

 19 19  0     0  0  0  0  0  0999 V2000
   55.4831  156.8137   -4.4300 C   0  0  0  0  0  0  0  0  0  0  0  0
   54.5621  156.4345   -3.5299 C   0  0  0  0  0  0  0  0  0  0  0  0
   53.3024  155.8331   -4.0514 C   0  0  0  0  0  0  0  0  0  0  0  0
   54.2829  156.1780   -6.2380 C   0  0  0  0  0  0  0  0  0  0  0  0
   54.0658  156.0113   -7.7141 C   0  0  0  0  0  0  0  0  0  0  0  0
   54.7223  156.5777   -2.0520 C   0  0  0  0  0  0  0  0  0  0  0  0
   55.3816  156.7028   -5.7936 N   0  0  0  0  0  0  0  0  0  0  0  0
   53.2530  155.7450   -5.4302 N   0  0  0  0  0  0  0  0  0  0  0  0
   54.9990  155.2745   -1.5170 N   0  0  0  0  0  0  0  0  0  0  0  0
   52.4045  155.4577   -3.3040 O   0  0  0  0  0  0  0  0  0  0  0  0
   56.4143  157.2563   -4.0885 H   0  0  0  0  0  0  0  0  0  0  0  0
   54.4412  155.0403   -8.0274 H   0  0  0  0  0  0  0  0  0  0  0  0
   54.5939  156.7974   -8.2488 H   0  0  0  0  0  0  0  0  0  0  0  0
   53.0030  156.0809   -7.9335 H   0  0  0  0  0  0  0  0  0  0  0  0
   53.7979  156.9773   -1.6336 H   0  0  0  0  0  0  0  0  0  0  0  0
   55.5487  157.2602   -1.8505 H   0  0  0  0  0  0  0  0  0  0  0  0
   52.4260  155.3459   -5.8648 H   0  0  0  0  0  0  0  0  0  0  0  0
   54.5558  154.4673   -1.9290 H   0  0  0  0  0  0  0  0  0  0  0  0
   55.4614  155.1955   -0.6238 H   0  0  0  0  0  0  0  0  0  0  0  0
  1  2  2  0  0  0  0
  1  7  1  0  0  0  0
  2  3  1  0  0  0  0
  2  6  1  0  0  0  0
  3  8  1  0  0  0  0
  3 10  2  0  0  0  0
  4  5  1  0  0  0  0
  4  7  2  0  0  0  0
  4  8  1  0  0  0  0
  6  9  1  0  0  0  0
  1 11  1  0  0  0  0
  5 12  1  0  0  0  0
  5 13  1  0  0  0  0
  5 14  1  0  0  0  0
  6 15  1  0  0  0  0
  6 16  1  0  0  0  0
  8 17  1  0  0  0  0
  9 18  1  0  0  0  0
  9 19  1  0  0  0  0
M  END
> <FRED Chemgauss4 score>
-5.078065

$$$$
C85254253	P133385080
  -OEChem-05122015083D

 25 24  0     1  0  0  0  0  0999 V2000
   57.6617  156.3121   -6.6508 C   0  0  0  0  0  0  0  0  0  0  0  0
   56.3257  154.2511   -6.4301 C   0  0  0  0  0  0  0  0  0  0  0  0
   55.5243  157.5502   -2.3884 C   0  0  0  0  0  0  0  0  0  0  0  0
   55.8168  155.3981   -3.6283 C   0  0  0  0  0  0  0  0  0  0  0  0
   53.4725  156.4004   -3.2907 C   0  0  0  0  0  0  0  0  0  0  0  0
   57.0273  155.3891   -5.7008 C   0  0  2  0  0  0  0  0  0  0  0  0
   54.8782  156.1964   -2.7062 C   0  0  2  0  0  0  0  0  0  0  0  0
   58.1656  157.0397   -7.4014 N   0  0  0  0  0  0  0  0  0  0  0  0
   56.0865  156.1169   -4.8534 N   0  0  0  0  0  0  0  0  0  0  0  0
   52.8491  155.1549   -3.5624 O   0  0  0  0  0  0  0  0  0  0  0  0
   54.7486  155.5025   -1.4619 O   0  0  0  0  0  0  0  0  0  0  0  0
   55.5538  154.6266   -7.1126 H   0  0  0  0  0  0  0  0  0  0  0  0
   55.8363  153.5765   -5.7190 H   0  0  0  0  0  0  0  0  0  0  0  0
   57.0368  153.6638   -7.0217 H   0  0  0  0  0  0  0  0  0  0  0  0
   54.8791  158.1451   -1.7315 H   0  0  0  0  0  0  0  0  0  0  0  0
   56.4998  157.4353   -1.9048 H   0  0  0  0  0  0  0  0  0  0  0  0
   55.6595  158.1410   -3.3019 H   0  0  0  0  0  0  0  0  0  0  0  0
   55.3864  154.4221   -3.8771 H   0  0  0  0  0  0  0  0  0  0  0  0
   56.7750  155.2207   -3.1268 H   0  0  0  0  0  0  0  0  0  0  0  0
   53.5095  156.9867   -4.2156 H   0  0  0  0  0  0  0  0  0  0  0  0
   52.8448  156.9632   -2.5898 H   0  0  0  0  0  0  0  0  0  0  0  0
   57.7874  154.9701   -5.0325 H   0  0  0  0  0  0  0  0  0  0  0  0
   55.2158  156.2547   -5.3729 H   0  0  0  0  0  0  0  0  0  0  0  0
   51.9706  155.3525   -3.9271 H   0  0  0  0  0  0  0  0  0  0  0  0
   55.6456  155.4083   -1.1096 H   0  0  0  0  0  0  0  0  0  0  0  0
  1  6  1  0  0  0  0
  1  8  3  0  0  0  0
  2  6  1  0  0  0  0
  3  7  1  0  0  0  0
  4  7  1  0  0  0  0
  4  9  1  0  0  0  0
  5  7  1  0  0  0  0
  5 10  1  0  0  0  0
  6  9  1  0  0  0  0
  7 11  1  0  0  0  0
  2 12  1  0  0  0  0
  2 13  1  0  0  0  0
  2 14  1  0  0  0  0
  3 15  1  0  0  0  0
  3 16  1  0  0  0  0
  3 17  1  0  0  0  0
  4 18  1  0  0  0  0
  4 19  1  0  0  0  0
  5 20  1  0  0  0  0
  5 21  1  0  0  0  0
  6 22  1  0  0  0  0
  9 23  1  0  0  0  0
 10 24  1  0  0  0  0
 11 25  1  0  0  0  0
M  END
> <FRED Chemgauss4 score>
-5.076994

$$$$
C82987567	P129755007
  -OEChem-05122015083D

 33 33  0     1  0  0  0  0  0999 V2000
   58.3497  157.5440   -5.2963 C   0  0  0  0  0  0  0  0  0  0  0  0
   57.2160  156.7673   -5.3376 C   0  0  0  0  0  0  0  0  0  0  0  0
   56.8817  158.6211   -4.1938 C   0  0  0  0  0  0  0  0  0  0  0  0
   56.0484  160.9978   -4.0936 C   0  0  0  0  0  0  0  0  0  0  0  0
   56.7732  159.8262   -1.9825 C   0  0  0  0  0  0  0  0  0  0  0  0
   54.6569  154.7263   -5.4749 C   0  0  0  0  0  0  0  0  0  0  0  0
   54.7550  156.3331   -3.0007 C   0  0  0  0  0  0  0  0  0  0  0  0
   56.1604  159.6270   -3.3877 C   0  0  0  0  0  0  0  0  0  0  0  0
   54.8431  157.0332   -4.3739 C   0  0  2  0  0  0  0  0  0  0  0  0
   54.2501  156.2027   -5.5502 C   0  0  2  0  0  0  0  0  0  0  0  0
   58.1352  158.6965   -4.5825 N   0  0  0  0  0  0  0  0  0  0  0  0
   56.2843  157.4700   -4.6267 N   0  0  0  0  0  0  0  0  0  0  0  0
   52.7835  156.2559   -5.5371 N   0  0  0  0  0  0  0  0  0  0  0  0
   53.5115  155.6647   -2.8384 O   0  0  0  0  0  0  0  0  0  0  0  0
   59.3096  157.3320   -5.7441 H   0  0  0  0  0  0  0  0  0  0  0  0
   57.0008  155.8113   -5.7943 H   0  0  0  0  0  0  0  0  0  0  0  0
   57.0367  161.4125   -4.3199 H   0  0  0  0  0  0  0  0  0  0  0  0
   55.5127  161.7312   -3.4809 H   0  0  0  0  0  0  0  0  0  0  0  0
   55.5063  160.8918   -5.0400 H   0  0  0  0  0  0  0  0  0  0  0  0
   57.8167  160.1494   -2.0681 H   0  0  0  0  0  0  0  0  0  0  0  0
   56.7556  158.9025   -1.3938 H   0  0  0  0  0  0  0  0  0  0  0  0
   56.2319  160.5915   -1.4155 H   0  0  0  0  0  0  0  0  0  0  0  0
   54.3406  154.2711   -4.5295 H   0  0  0  0  0  0  0  0  0  0  0  0
   54.2169  154.1476   -6.2931 H   0  0  0  0  0  0  0  0  0  0  0  0
   55.7445  154.6135   -5.5550 H   0  0  0  0  0  0  0  0  0  0  0  0
   54.8463  157.0685   -2.1941 H   0  0  0  0  0  0  0  0  0  0  0  0
   55.5621  155.6025   -2.8747 H   0  0  0  0  0  0  0  0  0  0  0  0
   55.1124  159.3031   -3.2076 H   0  0  0  0  0  0  0  0  0  0  0  0
   54.2395  157.9488   -4.2858 H   0  0  0  0  0  0  0  0  0  0  0  0
   54.5914  156.6017   -6.5124 H   0  0  0  0  0  0  0  0  0  0  0  0
   52.2905  155.5107   -5.9715 H   0  0  0  0  0  0  0  0  0  0  0  0
   52.3550  157.1156   -5.2831 H   0  0  0  0  0  0  0  0  0  0  0  0
   53.5279  155.2514   -1.9600 H   0  0  0  0  0  0  0  0  0  0  0  0
  1  2  2  0  0  0  0
  1 11  1  0  0  0  0
  2 12  1  0  0  0  0
  3  8  1  0  0  0  0
  3 11  2  0  0  0  0
  3 12  1  0  0  0  0
  4  8  1  0  0  0  0
  5  8  1  0  0  0  0
  6 10  1  0  0  0  0
  7  9  1  0  0  0  0
  7 14  1  0  0  0  0
  9 10  1  0  0  0  0
  9 12  1  0  0  0  0
 10 13  1  0  0  0  0
  1 15  1  0  0  0  0
  2 16  1  0  0  0  0
  4 17  1  0  0  0  0
  4 18  1  0  0  0  0
  4 19  1  0  0  0  0
  5 20  1  0  0  0  0
  5 21  1  0  0  0  0
  5 22  1  0  0  0  0
  6 23  1  0  0  0  0
  6 24  1  0  0  0  0
  6 25  1  0  0  0  0
  7 26  1  0  0  0  0
  7 27  1  0  0  0  0
  8 28  1  0  0  0  0
  9 29  1  0  0  0  0
 10 30  1  0  0  0  0
 13 31  1  0  0  0  0
 13 32  1  0  0  0  0
 14 33  1  0  0  0  0
M  END
> <FRED Chemgauss4 score>
-5.076662

$$$$
C85170154	P133262288
  -OEChem-05122015083D

 29 29  0     1  0  0  0  0  0999 V2000
   58.4320  154.0553   -6.2360 C   0  0  0  0  0  0  0  0  0  0  0  0
   59.3873  155.8477   -6.8727 C   0  0  0  0  0  0  0  0  0  0  0  0
   57.4360  155.0014   -6.2959 C   0  0  0  0  0  0  0  0  0  0  0  0
   57.4557  157.4355   -6.9246 C   0  0  0  0  0  0  0  0  0  0  0  0
   54.2723  155.6695   -4.4551 C   0  0  0  0  0  0  0  0  0  0  0  0
   55.3460  153.5356   -6.2854 C   0  0  0  0  0  0  0  0  0  0  0  0
   54.0088  156.0659   -3.0139 C   0  0  0  0  0  0  0  0  0  0  0  0
   55.9482  154.9206   -6.0015 C   0  0  1  0  0  0  0  0  0  0  0  0
   59.6443  154.5885   -6.5960 N   0  0  0  0  0  0  0  0  0  0  0  0
   58.0633  156.1444   -6.7047 N   0  0  0  0  0  0  0  0  0  0  0  0
   55.5762  152.6131   -5.2043 N   0  0  0  0  0  0  0  0  0  0  0  0
   55.6691  155.3026   -4.6120 N   0  0  0  0  0  0  0  0  0  0  0  0
   52.6493  156.4581   -2.8730 O   0  0  0  0  0  0  0  0  0  0  0  0
   58.3402  153.0168   -5.9523 H   0  0  0  0  0  0  0  0  0  0  0  0
   60.1112  156.5835   -7.1954 H   0  0  0  0  0  0  0  0  0  0  0  0
   57.1308  157.4822   -7.9674 H   0  0  0  0  0  0  0  0  0  0  0  0
   56.6015  157.5551   -6.2524 H   0  0  0  0  0  0  0  0  0  0  0  0
   58.1884  158.2200   -6.7158 H   0  0  0  0  0  0  0  0  0  0  0  0
   53.6576  154.8130   -4.7498 H   0  0  0  0  0  0  0  0  0  0  0  0
   54.0626  156.5085   -5.1254 H   0  0  0  0  0  0  0  0  0  0  0  0
   54.2589  153.6056   -6.4056 H   0  0  0  0  0  0  0  0  0  0  0  0
   55.7513  153.0806   -7.1954 H   0  0  0  0  0  0  0  0  0  0  0  0
   54.6367  156.9192   -2.7392 H   0  0  0  0  0  0  0  0  0  0  0  0
   54.2098  155.2386   -2.3256 H   0  0  0  0  0  0  0  0  0  0  0  0
   55.4308  155.6486   -6.6400 H   0  0  0  0  0  0  0  0  0  0  0  0
   55.5735  151.6245   -5.3951 H   0  0  0  0  0  0  0  0  0  0  0  0
   55.5328  152.9492   -4.2562 H   0  0  0  0  0  0  0  0  0  0  0  0
   56.2605  156.0919   -4.3677 H   0  0  0  0  0  0  0  0  0  0  0  0
   52.5240  156.7024   -1.9420 H   0  0  0  0  0  0  0  0  0  0  0  0
  1  3  2  0  0  0  0
  1  9  1  0  0  0  0
  2  9  2  0  0  0  0
  2 10  1  0  0  0  0
  3  8  1  0  0  0  0
  3 10  1  0  0  0  0
  4 10  1  0  0  0  0
  5  7  1  0  0  0  0
  5 12  1  0  0  0  0
  6  8  1  0  0  0  0
  6 11  1  0  0  0  0
  7 13  1  0  0  0  0
  8 12  1  0  0  0  0
  1 14  1  0  0  0  0
  2 15  1  0  0  0  0
  4 16  1  0  0  0  0
  4 17  1  0  0  0  0
  4 18  1  0  0  0  0
  5 19  1  0  0  0  0
  5 20  1  0  0  0  0
  6 21  1  0  0  0  0
  6 22  1  0  0  0  0
  7 23  1  0  0  0  0
  7 24  1  0  0  0  0
  8 25  1  0  0  0  0
 11 26  1  0  0  0  0
 11 27  1  0  0  0  0
 12 28  1  0  0  0  0
 13 29  1  0  0  0  0
M  END
> <FRED Chemgauss4 score>
-5.075623

$$$$
C26511060	P39122575
  -OEChem-05122015083D

 19 19  0     0  0  0  0  0  0999 V2000
   55.2972  157.2222   -4.2319 C   0  0  0  0  0  0  0  0  0  0  0  0
   54.4190  159.1244   -2.5525 C   0  0  0  0  0  0  0  0  0  0  0  0
   54.3588  156.9630   -3.2539 C   0  0  0  0  0  0  0  0  0  0  0  0
   55.7547  158.5228   -4.2906 C   0  0  0  0  0  0  0  0  0  0  0  0
   53.7983  155.5772   -3.1141 C   0  0  0  0  0  0  0  0  0  0  0  0
   52.5491  155.3297   -3.9538 C   0  0  0  0  0  0  0  0  0  0  0  0
   53.8956  157.8938   -2.3940 N   0  0  0  0  0  0  0  0  0  0  0  0
   55.3356  159.5030   -3.4636 N   0  0  0  0  0  0  0  0  0  0  0  0
   52.8313  155.5855   -5.3878 N   0  3  0  0  0  0  0  0  0  0  0  0
   56.6240  158.8825   -5.1554 O   0  5  0  0  0  0  0  0  0  0  0  0
   55.6424  156.4440   -4.9045 H   0  0  0  0  0  0  0  0  0  0  0  0
   54.0646  159.8918   -1.8752 H   0  0  0  0  0  0  0  0  0  0  0  0
   54.5686  154.8567   -3.4198 H   0  0  0  0  0  0  0  0  0  0  0  0
   53.5884  155.3554   -2.0597 H   0  0  0  0  0  0  0  0  0  0  0  0
   51.7482  156.0190   -3.6704 H   0  0  0  0  0  0  0  0  0  0  0  0
   52.1847  154.3007   -3.8796 H   0  0  0  0  0  0  0  0  0  0  0  0
   52.3756  154.8848   -5.9819 H   0  0  0  0  0  0  0  0  0  0  0  0
   53.8393  155.5509   -5.5745 H   0  0  0  0  0  0  0  0  0  0  0  0
   52.4888  156.5102   -5.6697 H   0  0  0  0  0  0  0  0  0  0  0  0
  1  3  1  0  0  0  0
  1  4  2  0  0  0  0
  2  7  1  0  0  0  0
  2  8  2  0  0  0  0
  3  5  1  0  0  0  0
  3  7  2  0  0  0  0
  4  8  1  0  0  0  0
  4 10  1  0  0  0  0
  5  6  1  0  0  0  0
  6  9  1  0  0  0  0
  1 11  1  0  0  0  0
  2 12  1  0  0  0  0
  5 13  1  0  0  0  0
  5 14  1  0  0  0  0
  6 15  1  0  0  0  0
  6 16  1  0  0  0  0
  9 17  1  0  0  0  0
  9 18  1  0  0  0  0
  9 19  1  0  0  0  0
M  CHG  2   9   1  10  -1
M  END
> <FRED Chemgauss4 score>
-5.071817

$$$$
C04293662	P05643503
  -OEChem-05122015083D

 26 26  0     1  0  0  0  0  0999 V2000
   53.7653  156.0564   -4.3322 C   0  0  2  0  0  0  0  0  0  0  0  0
   54.5160  157.0635   -5.2178 C   0  0  2  0  0  0  0  0  0  0  0  0
   54.5371  158.4528   -4.5745 C   0  0  2  0  0  0  0  0  0  0  0  0
   55.0768  158.3570   -3.1438 C   0  0  1  0  0  0  0  0  0  0  0  0
   54.3283  156.1032   -2.9006 C   0  0  1  0  0  0  0  0  0  0  0  0
   53.8338  154.6416   -4.9174 C   0  0  0  0  0  0  0  0  0  0  0  0
   55.0504  159.6912   -2.4077 C   0  0  0  0  0  0  0  0  0  0  0  0
   54.2855  157.4350   -2.3847 O   0  0  0  0  0  0  0  0  0  0  0  0
   53.9077  157.1314   -6.5038 O   0  0  0  0  0  0  0  0  0  0  0  0
   53.2047  158.9690   -4.5642 O   0  0  0  0  0  0  0  0  0  0  0  0
   53.5455  155.2464   -2.0721 O   0  0  0  0  0  0  0  0  0  0  0  0
   53.7323  159.9272   -1.9462 O   0  0  0  0  0  0  0  0  0  0  0  0
   52.7020  156.3330   -4.3064 H   0  0  0  0  0  0  0  0  0  0  0  0
   55.5477  156.7180   -5.3621 H   0  0  0  0  0  0  0  0  0  0  0  0
   55.1430  159.1344   -5.1825 H   0  0  0  0  0  0  0  0  0  0  0  0
   56.1131  157.9961   -3.1613 H   0  0  0  0  0  0  0  0  0  0  0  0
   55.3632  155.7389   -2.8789 H   0  0  0  0  0  0  0  0  0  0  0  0
   54.8703  154.3175   -4.9653 H   0  0  0  0  0  0  0  0  0  0  0  0
   53.4090  154.6408   -5.9179 H   0  0  0  0  0  0  0  0  0  0  0  0
   53.2711  153.9591   -4.2857 H   0  0  0  0  0  0  0  0  0  0  0  0
   55.3442  160.4960   -3.0825 H   0  0  0  0  0  0  0  0  0  0  0  0
   55.7297  159.6613   -1.5551 H   0  0  0  0  0  0  0  0  0  0  0  0
   54.4176  157.7769   -7.0179 H   0  0  0  0  0  0  0  0  0  0  0  0
   53.2548  159.8444   -4.1525 H   0  0  0  0  0  0  0  0  0  0  0  0
   53.9266  155.3003   -1.1822 H   0  0  0  0  0  0  0  0  0  0  0  0
   53.7415  160.7812   -1.4816 H   0  0  0  0  0  0  0  0  0  0  0  0
  1  2  1  0  0  0  0
  1  5  1  0  0  0  0
  1  6  1  0  0  0  0
  2  3  1  0  0  0  0
  2  9  1  0  0  0  0
  3  4  1  0  0  0  0
  3 10  1  0  0  0  0
  4  7  1  0  0  0  0
  4  8  1  0  0  0  0
  5  8  1  0  0  0  0
  5 11  1  0  0  0  0
  7 12  1  0  0  0  0
  1 13  1  0  0  0  0
  2 14  1  0  0  0  0
  3 15  1  0  0  0  0
  4 16  1  0  0  0  0
  5 17  1  0  0  0  0
  6 18  1  0  0  0  0
  6 19  1  0  0  0  0
  6 20  1  0  0  0  0
  7 21  1  0  0  0  0
  7 22  1  0  0  0  0
  9 23  1  0  0  0  0
 10 24  1  0  0  0  0
 11 25  1  0  0  0  0
 12 26  1  0  0  0  0
M  END
> <FRED Chemgauss4 score>
-5.071153

$$$$
C36762383	P54642196
  -OEChem-05122015083D

 24 24  0     1  0  0  0  0  0999 V2000
   55.3304  156.9120   -3.2594 C   0  0  0  0  0  0  0  0  0  0  0  0
   55.7583  155.4041   -4.6094 C   0  0  0  0  0  0  0  0  0  0  0  0
   56.1572  154.5293   -5.7203 C   0  0  0  0  0  0  0  0  0  0  0  0
   57.0215  159.9378    0.3913 C   0  0  0  0  0  0  0  0  0  0  0  0
   56.2847  159.8549   -0.9366 C   0  0  0  0  0  0  0  0  0  0  0  0
   55.9905  158.4019   -1.3233 C   0  0  0  0  0  0  0  0  0  0  0  0
   55.2191  158.2951   -2.6490 C   0  0  2  0  0  0  0  0  0  0  0  0
   55.8609  156.7045   -4.4993 N   0  0  0  0  0  0  0  0  0  0  0  0
   54.9147  155.8178   -2.6148 N   0  0  0  0  0  0  0  0  0  0  0  0
   53.8209  158.6225   -2.4926 N   0  0  0  0  0  0  0  0  0  0  0  0
   55.2039  154.7961   -3.5281 O   0  0  0  0  0  0  0  0  0  0  0  0
   57.1989  154.1795   -5.6054 H   0  0  0  0  0  0  0  0  0  0  0  0
   55.5155  153.6320   -5.8006 H   0  0  0  0  0  0  0  0  0  0  0  0
   56.0862  155.0359   -6.7010 H   0  0  0  0  0  0  0  0  0  0  0  0
   57.9624  159.3797    0.3532 H   0  0  0  0  0  0  0  0  0  0  0  0
   57.2478  160.9770    0.6505 H   0  0  0  0  0  0  0  0  0  0  0  0
   56.4075  159.5142    1.1922 H   0  0  0  0  0  0  0  0  0  0  0  0
   55.3509  160.4233   -0.8606 H   0  0  0  0  0  0  0  0  0  0  0  0
   56.8933  160.3307   -1.7144 H   0  0  0  0  0  0  0  0  0  0  0  0
   56.9410  157.8592   -1.4108 H   0  0  0  0  0  0  0  0  0  0  0  0
   55.4271  157.9230   -0.5118 H   0  0  0  0  0  0  0  0  0  0  0  0
   55.6192  159.0395   -3.3486 H   0  0  0  0  0  0  0  0  0  0  0  0
   53.1650  158.2873   -3.1756 H   0  0  0  0  0  0  0  0  0  0  0  0
   53.5606  159.3353   -1.8343 H   0  0  0  0  0  0  0  0  0  0  0  0
  1  7  1  0  0  0  0
  1  8  1  0  0  0  0
  1  9  2  0  0  0  0
  2  3  1  0  0  0  0
  2  8  2  0  0  0  0
  2 11  1  0  0  0  0
  4  5  1  0  0  0  0
  5  6  1  0  0  0  0
  6  7  1  0  0  0  0
  7 10  1  0  0  0  0
  9 11  1  0  0  0  0
  3 12  1  0  0  0  0
  3 13  1  0  0  0  0
  3 14  1  0  0  0  0
  4 15  1  0  0  0  0
  4 16  1  0  0  0  0
  4 17  1  0  0  0  0
  5 18  1  0  0  0  0
  5 19  1  0  0  0  0
  6 20  1  0  0  0  0
  6 21  1  0  0  0  0
  7 22  1  0  0  0  0
 10 23  1  0  0  0  0
 10 24  1  0  0  0  0
M  END
> <FRED Chemgauss4 score>
-5.069217

$$$$
C97761907	P155131893
  -OEChem-05122015083D

 49 51  0     1  0  0  0  0  0999 V2000
   55.5329  156.8097   -3.9125 C   0  0  0  0  0  0  0  0  0  0  0  0
   54.5237  156.6198   -2.9495 C   0  0  0  0  0  0  0  0  0  0  0  0
   55.9420  158.1080   -3.7297 C   0  0  0  0  0  0  0  0  0  0  0  0
   53.2282  150.6923   -8.0555 C   0  0  0  0  0  0  0  0  0  0  0  0
   53.6094  151.6519   -9.1950 C   0  0  0  0  0  0  0  0  0  0  0  0
   54.6298  150.9183   -7.4650 C   0  0  0  0  0  0  0  0  0  0  0  0
   56.6874  154.1751   -7.3553 C   0  0  0  0  0  0  0  0  0  0  0  0
   54.2615  153.5219   -7.5320 C   0  0  0  0  0  0  0  0  0  0  0  0
   57.0493  152.8976   -8.1013 C   0  0  0  0  0  0  0  0  0  0  0  0
   55.3714  154.0000   -6.5840 C   0  0  2  0  0  0  0  0  0  0  0  0
   54.7079  152.2534   -8.2682 C   0  0  0  0  0  0  0  0  0  0  0  0
   53.7332  155.4021   -2.6969 C   0  0  0  0  0  0  0  0  0  0  0  0
   56.9663  158.9130   -4.4216 C   0  0  0  0  0  0  0  0  0  0  0  0
   55.2386  159.9266   -2.1443 C   0  0  0  0  0  0  0  0  0  0  0  0
   56.0511  155.8130   -4.9215 C   0  0  0  0  0  0  0  0  0  0  0  0
   54.9709  155.3014   -5.8931 C   0  0  1  0  0  0  0  0  0  0  0  0
   54.3052  157.7102   -2.2097 N   0  0  0  0  0  0  0  0  0  0  0  0
   55.1828  158.5977   -2.7079 N   0  0  0  0  0  0  0  0  0  0  0  0
   53.9432  157.3539   -6.3374 N   0  0  0  0  0  0  0  0  0  0  0  0
   54.7228  156.3153   -6.9232 N   0  0  0  0  0  0  0  0  0  0  0  0
   55.9681  152.5006   -8.9416 O   0  0  0  0  0  0  0  0  0  0  0  0
   52.4164  151.0623   -7.4193 H   0  0  0  0  0  0  0  0  0  0  0  0
   53.0011  149.6665   -8.3564 H   0  0  0  0  0  0  0  0  0  0  0  0
   54.0089  151.1445  -10.0813 H   0  0  0  0  0  0  0  0  0  0  0  0
   52.8144  152.3321   -9.5139 H   0  0  0  0  0  0  0  0  0  0  0  0
   54.6635  150.9997   -6.3751 H   0  0  0  0  0  0  0  0  0  0  0  0
   55.3647  150.1684   -7.7813 H   0  0  0  0  0  0  0  0  0  0  0  0
   57.5000  154.4516   -6.6742 H   0  0  0  0  0  0  0  0  0  0  0  0
   56.5724  154.9913   -8.0800 H   0  0  0  0  0  0  0  0  0  0  0  0
   53.3399  153.3453   -6.9641 H   0  0  0  0  0  0  0  0  0  0  0  0
   54.0367  154.3079   -8.2647 H   0  0  0  0  0  0  0  0  0  0  0  0
   57.9268  153.0638   -8.7334 H   0  0  0  0  0  0  0  0  0  0  0  0
   57.2851  152.0844   -7.4062 H   0  0  0  0  0  0  0  0  0  0  0  0
   55.5274  153.2386   -5.8087 H   0  0  0  0  0  0  0  0  0  0  0  0
   54.2245  154.7540   -1.9515 H   0  0  0  0  0  0  0  0  0  0  0  0
   52.7208  155.6335   -2.3214 H   0  0  0  0  0  0  0  0  0  0  0  0
   53.5864  154.8036   -3.6135 H   0  0  0  0  0  0  0  0  0  0  0  0
   56.5364  159.4481   -5.2846 H   0  0  0  0  0  0  0  0  0  0  0  0
   57.4225  159.6653   -3.7552 H   0  0  0  0  0  0  0  0  0  0  0  0
   57.7995  158.2923   -4.7944 H   0  0  0  0  0  0  0  0  0  0  0  0
   54.5372  160.5571   -2.6970 H   0  0  0  0  0  0  0  0  0  0  0  0
   54.9639  159.8853   -1.0866 H   0  0  0  0  0  0  0  0  0  0  0  0
   56.2568  160.3151   -2.2349 H   0  0  0  0  0  0  0  0  0  0  0  0
   56.8859  156.2533   -5.4833 H   0  0  0  0  0  0  0  0  0  0  0  0
   56.4843  154.9719   -4.3625 H   0  0  0  0  0  0  0  0  0  0  0  0
   54.0296  155.1356   -5.3551 H   0  0  0  0  0  0  0  0  0  0  0  0
   53.0438  157.4170   -6.8137 H   0  0  0  0  0  0  0  0  0  0  0  0
   53.7309  157.0931   -5.3752 H   0  0  0  0  0  0  0  0  0  0  0  0
   55.6125  156.6925   -7.2369 H   0  0  0  0  0  0  0  0  0  0  0  0
  1  2  1  0  0  0  0
  1  3  2  0  0  0  0
  1 15  1  0  0  0  0
  2 12  1  0  0  0  0
  2 17  2  0  0  0  0
  3 13  1  0  0  0  0
  3 18  1  0  0  0  0
  4  5  1  0  0  0  0
  4  6  1  0  0  0  0
  5 11  1  0  0  0  0
  6 11  1  0  0  0  0
  7  9  1  0  0  0  0
  7 10  1  0  0  0  0
  8 10  1  0  0  0  0
  8 11  1  0  0  0  0
  9 21  1  0  0  0  0
 10 16  1  0  0  0  0
 11 21  1  0  0  0  0
 14 18  1  0  0  0  0
 15 16  1  0  0  0  0
 16 20  1  0  0  0  0
 17 18  1  0  0  0  0
 19 20  1  0  0  0  0
  4 22  1  0  0  0  0
  4 23  1  0  0  0  0
  5 24  1  0  0  0  0
  5 25  1  0  0  0  0
  6 26  1  0  0  0  0
  6 27  1  0  0  0  0
  7 28  1  0  0  0  0
  7 29  1  0  0  0  0
  8 30  1  0  0  0  0
  8 31  1  0  0  0  0
  9 32  1  0  0  0  0
  9 33  1  0  0  0  0
 10 34  1  0  0  0  0
 12 35  1  0  0  0  0
 12 36  1  0  0  0  0
 12 37  1  0  0  0  0
 13 38  1  0  0  0  0
 13 39  1  0  0  0  0
 13 40  1  0  0  0  0
 14 41  1  0  0  0  0
 14 42  1  0  0  0  0
 14 43  1  0  0  0  0
 15 44  1  0  0  0  0
 15 45  1  0  0  0  0
 16 46  1  0  0  0  0
 19 47  1  0  0  0  0
 19 48  1  0  0  0  0
 20 49  1  0  0  0  0
M  END
> <FRED Chemgauss4 score>
-5.065039

$$$$
C95881887	P150922172
  -OEChem-05122015083D

 16 17  0     1  0  0  0  0  0999 V2000
   56.4077  156.9881   -5.4569 C   0  0  0  0  0  0  0  0  0  0  0  0
   54.0338  156.2025   -4.7811 C   0  0  0  0  0  0  0  0  0  0  0  0
   54.4158  156.0934   -6.2014 C   0  0  0  0  0  0  0  0  0  0  0  0
   53.4893  155.8829   -2.8237 C   0  0  0  0  0  0  0  0  0  0  0  0
   54.5999  157.3328   -4.0169 C   0  0  2  0  0  0  0  0  0  0  0  0
   56.0330  157.3618   -4.2737 N   0  0  0  0  0  0  0  0  0  0  0  0
   55.6096  156.5205   -6.4848 N   0  0  0  0  0  0  0  0  0  0  0  0
   53.3384  155.3739   -4.0876 N   0  0  0  0  0  0  0  0  0  0  0  0
   54.2185  156.9450   -2.6417 N   0  0  0  0  0  0  0  0  0  0  0  0
   53.5070  155.5767   -7.0792 N   0  0  0  0  0  0  0  0  0  0  0  0
   52.8826  155.2018   -1.8316 O   0  0  0  0  0  0  0  0  0  0  0  0
   57.4847  157.0356   -5.6870 H   0  0  0  0  0  0  0  0  0  0  0  0
   54.1221  158.2781   -4.2947 H   0  0  0  0  0  0  0  0  0  0  0  0
   52.6179  155.2912   -6.7315 H   0  0  0  0  0  0  0  0  0  0  0  0
   53.7615  155.5014   -8.0395 H   0  0  0  0  0  0  0  0  0  0  0  0
   53.0326  155.6202   -0.9650 H   0  0  0  0  0  0  0  0  0  0  0  0
  1  6  2  0  0  0  0
  1  7  1  0  0  0  0
  2  3  1  0  0  0  0
  2  5  1  0  0  0  0
  2  8  2  0  0  0  0
  3  7  2  0  0  0  0
  3 10  1  0  0  0  0
  4  8  1  0  0  0  0
  4  9  2  0  0  0  0
  4 11  1  0  0  0  0
  5  6  1  0  0  0  0
  5  9  1  0  0  0  0
  1 12  1  0  0  0  0
  5 13  1  0  0  0  0
 10 14  1  0  0  0  0
 10 15  1  0  0  0  0
 11 16  1  0  0  0  0
M  END
> <FRED Chemgauss4 score>
-5.064067

$$$$
C39059111	P59177949
  -OEChem-05122015083D

 22 22  0     1  0  0  0  0  0999 V2000
   55.0979  153.9552   -6.1386 C   0  0  0  0  0  0  0  0  0  0  0  0
   53.6677  154.4511   -5.9166 C   0  0  1  0  0  0  0  0  0  0  0  0
   53.4967  154.9157   -4.4662 C   0  0  1  0  0  0  0  0  0  0  0  0
   54.6253  155.8898   -4.0778 C   0  0  1  0  0  0  0  0  0  0  0  0
   54.5604  156.2700   -2.5964 C   0  0  0  0  0  0  0  0  0  0  0  0
   56.0783  154.9745   -5.7404 N   0  0  0  0  0  0  0  0  0  0  0  0
   55.9357  155.2700   -4.3364 N   0  0  0  0  0  0  0  0  0  0  0  0
   53.4025  155.5365   -6.8068 O   0  0  0  0  0  0  0  0  0  0  0  0
   52.2176  155.5247   -4.3288 O   0  0  0  0  0  0  0  0  0  0  0  0
   54.6772  155.0885   -1.8278 O   0  0  0  0  0  0  0  0  0  0  0  0
   55.2650  153.0459   -5.5406 H   0  0  0  0  0  0  0  0  0  0  0  0
   55.2561  153.6360   -7.1824 H   0  0  0  0  0  0  0  0  0  0  0  0
   52.9604  153.6570   -6.1443 H   0  0  0  0  0  0  0  0  0  0  0  0
   53.4932  154.0273   -3.8046 H   0  0  0  0  0  0  0  0  0  0  0  0
   54.5718  156.7771   -4.6465 H   0  0  0  0  0  0  0  0  0  0  0  0
   53.6076  156.7503   -2.3825 H   0  0  0  0  0  0  0  0  0  0  0  0
   55.3796  156.9440   -2.3542 H   0  0  0  0  0  0  0  0  0  0  0  0
   57.0267  154.6588   -5.9485 H   0  0  0  0  0  0  0  0  0  0  0  0
   56.6796  155.9055   -4.0489 H   0  0  0  0  0  0  0  0  0  0  0  0
   53.5146  155.1924   -7.7073 H   0  0  0  0  0  0  0  0  0  0  0  0
   51.5688  154.8450   -4.5610 H   0  0  0  0  0  0  0  0  0  0  0  0
   54.6339  155.3496   -0.8916 H   0  0  0  0  0  0  0  0  0  0  0  0
  1  2  1  0  0  0  0
  1  6  1  0  0  0  0
  2  3  1  0  0  0  0
  2  8  1  0  0  0  0
  3  4  1  0  0  0  0
  3  9  1  0  0  0  0
  4  5  1  0  0  0  0
  4  7  1  0  0  0  0
  5 10  1  0  0  0  0
  6  7  1  0  0  0  0
  1 11  1  0  0  0  0
  1 12  1  0  0  0  0
  2 13  1  0  0  0  0
  3 14  1  0  0  0  0
  4 15  1  0  0  0  0
  5 16  1  0  0  0  0
  5 17  1  0  0  0  0
  6 18  1  0  0  0  0
  7 19  1  0  0  0  0
  8 20  1  0  0  0  0
  9 21  1  0  0  0  0
 10 22  1  0  0  0  0
M  END
> <FRED Chemgauss4 score>
-5.054628

$$$$
C19519414	P150995912
  -OEChem-05122015083D

 27 27  0     0  0  0  0  0  0999 V2000
   53.6609  156.0503   -3.4180 C   0  0  0  0  0  0  0  0  0  0  0  0
   56.7842  156.4608   -5.9820 C   0  0  0  0  0  0  0  0  0  0  0  0
   56.8031  153.9506   -5.9836 C   0  0  0  0  0  0  0  0  0  0  0  0
   55.2557  156.4073   -6.0043 C   0  0  0  0  0  0  0  0  0  0  0  0
   55.2740  153.9808   -6.0051 C   0  0  0  0  0  0  0  0  0  0  0  0
   57.3908  155.2111   -6.6133 C   0  0  0  0  0  0  0  0  0  0  0  0
   54.7917  155.1900   -3.9503 C   0  0  0  0  0  0  0  0  0  0  0  0
   53.8851  156.6800   -2.3021 N   0  0  0  0  0  0  0  0  0  0  0  0
   54.6901  155.1897   -5.4079 N   0  0  0  0  0  0  0  0  0  0  0  0
   52.5158  156.0851   -4.1803 N   0  0  0  0  0  0  0  0  0  0  0  0
   58.8002  155.2354   -6.4259 O   0  0  0  0  0  0  0  0  0  0  0  0
   55.1748  156.3982   -1.8418 O   0  0  0  0  0  0  0  0  0  0  0  0
   57.1378  157.3529   -6.5121 H   0  0  0  0  0  0  0  0  0  0  0  0
   57.1417  156.5670   -4.9495 H   0  0  0  0  0  0  0  0  0  0  0  0
   57.1633  153.8481   -4.9515 H   0  0  0  0  0  0  0  0  0  0  0  0
   57.1687  153.0647   -6.5157 H   0  0  0  0  0  0  0  0  0  0  0  0
   54.8772  157.2965   -5.4597 H   0  0  0  0  0  0  0  0  0  0  0  0
   54.9012  156.5278   -7.0506 H   0  0  0  0  0  0  0  0  0  0  0  0
   54.9208  153.8554   -7.0513 H   0  0  0  0  0  0  0  0  0  0  0  0
   54.9095  153.0863   -5.4595 H   0  0  0  0  0  0  0  0  0  0  0  0
   57.1964  155.2153   -7.6945 H   0  0  0  0  0  0  0  0  0  0  0  0
   54.7109  154.1718   -3.5571 H   0  0  0  0  0  0  0  0  0  0  0  0
   55.7537  155.6096   -3.6400 H   0  0  0  0  0  0  0  0  0  0  0  0
   52.4341  155.5677   -5.0492 H   0  0  0  0  0  0  0  0  0  0  0  0
   51.7158  156.6391   -3.8943 H   0  0  0  0  0  0  0  0  0  0  0  0
   59.1509  154.4295   -6.8380 H   0  0  0  0  0  0  0  0  0  0  0  0
   55.2078  156.9201   -1.0224 H   0  0  0  0  0  0  0  0  0  0  0  0
  1  7  1  0  0  0  0
  1  8  2  0  0  0  0
  1 10  1  0  0  0  0
  2  4  1  0  0  0  0
  2  6  1  0  0  0  0
  3  5  1  0  0  0  0
  3  6  1  0  0  0  0
  4  9  1  0  0  0  0
  5  9  1  0  0  0  0
  6 11  1  0  0  0  0
  7  9  1  0  0  0  0
  8 12  1  0  0  0  0
  2 13  1  0  0  0  0
  2 14  1  0  0  0  0
  3 15  1  0  0  0  0
  3 16  1  0  0  0  0
  4 17  1  0  0  0  0
  4 18  1  0  0  0  0
  5 19  1  0  0  0  0
  5 20  1  0  0  0  0
  6 21  1  0  0  0  0
  7 22  1  0  0  0  0
  7 23  1  0  0  0  0
 10 24  1  0  0  0  0
 10 25  1  0  0  0  0
 11 26  1  0  0  0  0
 12 27  1  0  0  0  0
M  END
> <FRED Chemgauss4 score>
-5.053337

$$$$
C97762331	P155116902
  -OEChem-05122015083D

 45 45  0     1  0  0  0  0  0999 V2000
   55.3403  153.5229   -6.2631 C   0  0  0  0  0  0  0  0  0  0  0  0
   55.3160  154.8149   -5.4502 C   0  0  0  0  0  0  0  0  0  0  0  0
   56.7684  153.0550   -6.5178 C   0  0  0  0  0  0  0  0  0  0  0  0
   57.5897  155.3876   -6.3795 C   0  0  0  0  0  0  0  0  0  0  0  0
   56.1670  155.8992   -6.1247 C   0  0  2  0  0  0  0  0  0  0  0  0
   55.9149  160.0134   -4.4573 C   0  0  0  0  0  0  0  0  0  0  0  0
   56.6140  158.5110   -2.0632 C   0  0  0  0  0  0  0  0  0  0  0  0
   59.8414  153.0702   -6.4295 C   0  0  0  0  0  0  0  0  0  0  0  0
   56.1938  157.1690   -5.2774 C   0  0  0  0  0  0  0  0  0  0  0  0
   54.7908  157.7327   -4.9756 C   0  0  1  0  0  0  0  0  0  0  0  0
   54.8092  159.0181   -4.1159 C   0  0  1  0  0  0  0  0  0  0  0  0
   57.5353  154.1391   -7.1977 N   0  0  1  0  0  0  0  0  0  0  0  0
   52.6732  158.0860   -5.9014 N   0  0  0  0  0  0  0  0  0  0  0  0
   54.0590  158.0031   -6.2191 N   0  0  0  0  0  0  0  0  0  0  0  0
   54.3610  159.7714   -1.6532 O   0  0  0  0  0  0  0  0  0  0  0  0
   54.2972  157.3091   -2.2055 O   0  0  0  0  0  0  0  0  0  0  0  0
   59.7252  154.8322   -8.3554 O   0  0  0  0  0  0  0  0  0  0  0  0
   58.7871  152.5203   -8.7563 O   0  0  0  0  0  0  0  0  0  0  0  0
   54.8716  158.6273   -2.3802 S   0  0  0  0  0  0  0  0  0  0  0  0
   59.0258  153.6546   -7.8923 S   0  0  0  0  0  0  0  0  0  0  0  0
   54.7831  152.7421   -5.7336 H   0  0  0  0  0  0  0  0  0  0  0  0
   54.8320  153.6896   -7.2211 H   0  0  0  0  0  0  0  0  0  0  0  0
   54.2808  155.1599   -5.3438 H   0  0  0  0  0  0  0  0  0  0  0  0
   55.6929  154.6153   -4.4390 H   0  0  0  0  0  0  0  0  0  0  0  0
   57.2626  152.7873   -5.5768 H   0  0  0  0  0  0  0  0  0  0  0  0
   56.7432  152.1680   -7.1601 H   0  0  0  0  0  0  0  0  0  0  0  0
   58.1554  156.1502   -6.9274 H   0  0  0  0  0  0  0  0  0  0  0  0
   58.1117  155.1846   -5.4366 H   0  0  0  0  0  0  0  0  0  0  0  0
   55.7065  156.1437   -7.0916 H   0  0  0  0  0  0  0  0  0  0  0  0
   56.9073  159.5635   -4.3613 H   0  0  0  0  0  0  0  0  0  0  0  0
   55.8093  160.3608   -5.4913 H   0  0  0  0  0  0  0  0  0  0  0  0
   55.8726  160.9010   -3.8176 H   0  0  0  0  0  0  0  0  0  0  0  0
   56.7569  158.2708   -1.0084 H   0  0  0  0  0  0  0  0  0  0  0  0
   57.0270  157.7226   -2.6943 H   0  0  0  0  0  0  0  0  0  0  0  0
   57.0723  159.4718   -2.3021 H   0  0  0  0  0  0  0  0  0  0  0  0
   60.8350  152.7152   -6.7077 H   0  0  0  0  0  0  0  0  0  0  0  0
   59.9151  153.8978   -5.7224 H   0  0  0  0  0  0  0  0  0  0  0  0
   59.2493  152.2572   -6.0068 H   0  0  0  0  0  0  0  0  0  0  0  0
   56.8096  157.9154   -5.7925 H   0  0  0  0  0  0  0  0  0  0  0  0
   56.7064  156.9291   -4.3401 H   0  0  0  0  0  0  0  0  0  0  0  0
   54.2230  156.9692   -4.4288 H   0  0  0  0  0  0  0  0  0  0  0  0
   53.8431  159.5284   -4.2310 H   0  0  0  0  0  0  0  0  0  0  0  0
   52.1652  157.3483   -6.3888 H   0  0  0  0  0  0  0  0  0  0  0  0
   52.5599  157.8919   -4.9073 H   0  0  0  0  0  0  0  0  0  0  0  0
   54.3756  158.8890   -6.6014 H   0  0  0  0  0  0  0  0  0  0  0  0
  1  2  1  0  0  0  0
  1  3  1  0  0  0  0
  2  5  1  0  0  0  0
  3 12  1  0  0  0  0
  4  5  1  0  0  0  0
  4 12  1  0  0  0  0
  5  9  1  0  0  0  0
  6 11  1  0  0  0  0
  7 19  1  0  0  0  0
  8 20  1  0  0  0  0
  9 10  1  0  0  0  0
 10 11  1  0  0  0  0
 10 14  1  0  0  0  0
 11 19  1  0  0  0  0
 12 20  1  0  0  0  0
 13 14  1  0  0  0  0
 15 19  2  0  0  0  0
 16 19  2  0  0  0  0
 17 20  2  0  0  0  0
 18 20  2  0  0  0  0
  1 21  1  0  0  0  0
  1 22  1  0  0  0  0
  2 23  1  0  0  0  0
  2 24  1  0  0  0  0
  3 25  1  0  0  0  0
  3 26  1  0  0  0  0
  4 27  1  0  0  0  0
  4 28  1  0  0  0  0
  5 29  1  0  0  0  0
  6 30  1  0  0  0  0
  6 31  1  0  0  0  0
  6 32  1  0  0  0  0
  7 33  1  0  0  0  0
  7 34  1  0  0  0  0
  7 35  1  0  0  0  0
  8 36  1  0  0  0  0
  8 37  1  0  0  0  0
  8 38  1  0  0  0  0
  9 39  1  0  0  0  0
  9 40  1  0  0  0  0
 10 41  1  0  0  0  0
 11 42  1  0  0  0  0
 13 43  1  0  0  0  0
 13 44  1  0  0  0  0
 14 45  1  0  0  0  0
M  END
> <FRED Chemgauss4 score>
-5.052772

$$$$
C37902477	P56948622
  -OEChem-05122015083D

 27 27  0     0  0  0  0  0  0999 V2000
   59.1471  157.7850   -8.2862 C   0  0  0  0  0  0  0  0  0  0  0  0
   58.1068  157.7392   -7.3882 C   0  0  0  0  0  0  0  0  0  0  0  0
   59.2255  155.8408   -7.4234 C   0  0  0  0  0  0  0  0  0  0  0  0
   55.2986  154.4323   -5.3764 C   0  0  0  0  0  0  0  0  0  0  0  0
   56.2420  154.9907   -6.4262 C   0  0  0  0  0  0  0  0  0  0  0  0
   57.2752  155.9411   -5.8295 C   0  0  0  0  0  0  0  0  0  0  0  0
   53.3796  155.5549   -2.9142 C   0  0  0  0  0  0  0  0  0  0  0  0
   53.1232  154.9363   -4.2781 C   0  0  0  0  0  0  0  0  0  0  0  0
   59.8393  156.6000   -8.3035 N   0  0  0  0  0  0  0  0  0  0  0  0
   58.1696  156.4875   -6.8436 N   0  0  0  0  0  0  0  0  0  0  0  0
   53.4604  156.9897   -2.9756 N   0  0  0  0  0  0  0  0  0  0  0  0
   54.1801  155.2371   -5.2161 N   0  0  0  0  0  0  0  0  0  0  0  0
   55.5202  153.3951   -4.7574 O   0  0  0  0  0  0  0  0  0  0  0  0
   59.4326  158.6109   -8.9211 H   0  0  0  0  0  0  0  0  0  0  0  0
   57.3560  158.4620   -7.1009 H   0  0  0  0  0  0  0  0  0  0  0  0
   59.4967  154.8258   -7.1666 H   0  0  0  0  0  0  0  0  0  0  0  0
   56.7429  154.1501   -6.9224 H   0  0  0  0  0  0  0  0  0  0  0  0
   55.6433  155.5099   -7.1848 H   0  0  0  0  0  0  0  0  0  0  0  0
   57.8918  155.4326   -5.0782 H   0  0  0  0  0  0  0  0  0  0  0  0
   56.7901  156.7836   -5.3216 H   0  0  0  0  0  0  0  0  0  0  0  0
   54.3174  155.1928   -2.4813 H   0  0  0  0  0  0  0  0  0  0  0  0
   52.5618  155.3084   -2.2299 H   0  0  0  0  0  0  0  0  0  0  0  0
   53.0675  153.8465   -4.1954 H   0  0  0  0  0  0  0  0  0  0  0  0
   52.1857  155.2999   -4.7111 H   0  0  0  0  0  0  0  0  0  0  0  0
   53.9303  157.4222   -3.7547 H   0  0  0  0  0  0  0  0  0  0  0  0
   53.2337  157.5297   -2.1557 H   0  0  0  0  0  0  0  0  0  0  0  0
   54.1005  156.0756   -5.7839 H   0  0  0  0  0  0  0  0  0  0  0  0
  1  2  2  0  0  0  0
  1  9  1  0  0  0  0
  2 10  1  0  0  0  0
  3  9  2  0  0  0  0
  3 10  1  0  0  0  0
  4  5  1  0  0  0  0
  4 12  1  0  0  0  0
  4 13  2  0  0  0  0
  5  6  1  0  0  0  0
  6 10  1  0  0  0  0
  7  8  1  0  0  0  0
  7 11  1  0  0  0  0
  8 12  1  0  0  0  0
  1 14  1  0  0  0  0
  2 15  1  0  0  0  0
  3 16  1  0  0  0  0
  5 17  1  0  0  0  0
  5 18  1  0  0  0  0
  6 19  1  0  0  0  0
  6 20  1  0  0  0  0
  7 21  1  0  0  0  0
  7 22  1  0  0  0  0
  8 23  1  0  0  0  0
  8 24  1  0  0  0  0
 11 25  1  0  0  0  0
 11 26  1  0  0  0  0
 12 27  1  0  0  0  0
M  END
> <FRED Chemgauss4 score>
-5.044157

$$$$
C45108172	P67980203
  -OEChem-05122015083D

 19 19  0     1  0  0  0  0  0999 V2000
   53.3735  155.3253   -4.3719 C   0  0  1  0  0  0  0  0  0  0  0  0
   54.2267  155.7958   -5.5250 C   0  0  1  0  0  0  0  0  0  0  0  0
   55.5757  156.0146   -4.8579 C   0  0  1  0  0  0  0  0  0  0  0  0
   53.9109  156.1658   -3.2276 C   0  0  1  0  0  0  0  0  0  0  0  0
   56.3432  157.1857   -5.4440 C   0  0  0  0  0  0  0  0  0  0  0  0
   55.3266  156.2486   -3.4583 O   0  0  0  0  0  0  0  0  0  0  0  0
   51.9951  155.5347   -4.5889 O   0  0  0  0  0  0  0  0  0  0  0  0
   53.3359  157.4684   -3.1855 O   0  0  0  0  0  0  0  0  0  0  0  0
   57.5742  157.3146   -4.7534 O   0  0  0  0  0  0  0  0  0  0  0  0
   54.3188  154.8213   -6.4616 F   0  0  0  0  0  0  0  0  0  0  0  0
   53.5183  154.2344   -4.1523 H   0  0  0  0  0  0  0  0  0  0  0  0
   53.8428  156.7087   -6.0200 H   0  0  0  0  0  0  0  0  0  0  0  0
   56.1905  155.0984   -4.9398 H   0  0  0  0  0  0  0  0  0  0  0  0
   53.7610  155.6726   -2.2692 H   0  0  0  0  0  0  0  0  0  0  0  0
   55.7701  158.1075   -5.3278 H   0  0  0  0  0  0  0  0  0  0  0  0
   56.5439  157.0126   -6.5029 H   0  0  0  0  0  0  0  0  0  0  0  0
   51.5340  155.2038   -3.8012 H   0  0  0  0  0  0  0  0  0  0  0  0
   53.7342  157.9317   -2.4291 H   0  0  0  0  0  0  0  0  0  0  0  0
   58.0434  158.0691   -5.1476 H   0  0  0  0  0  0  0  0  0  0  0  0
  1  2  1  0  0  0  0
  1  4  1  0  0  0  0
  1  7  1  0  0  0  0
  2  3  1  0  0  0  0
  2 10  1  0  0  0  0
  3  5  1  0  0  0  0
  3  6  1  0  0  0  0
  4  6  1  0  0  0  0
  4  8  1  0  0  0  0
  5  9  1  0  0  0  0
  1 11  1  0  0  0  0
  2 12  1  0  0  0  0
  3 13  1  0  0  0  0
  4 14  1  0  0  0  0
  5 15  1  0  0  0  0
  5 16  1  0  0  0  0
  7 17  1  0  0  0  0
  8 18  1  0  0  0  0
  9 19  1  0  0  0  0
M  END
> <FRED Chemgauss4 score>
-5.041735

$$$$
C44473341	P67172336
  -OEChem-05122015083D

 25 25  0     1  0  0  0  0  0999 V2000
   56.1246  157.2273   -4.7497 C   0  0  0  0  0  0  0  0  0  0  0  0
   55.3904  156.0693   -4.4305 C   0  0  0  0  0  0  0  0  0  0  0  0
   55.9607  155.0799   -5.1935 C   0  0  0  0  0  0  0  0  0  0  0  0
   55.6488  153.6433   -5.3164 C   0  0  0  0  0  0  0  0  0  0  0  0
   57.8581  155.0558   -6.8411 C   0  0  0  0  0  0  0  0  0  0  0  0
   52.9376  155.4408   -4.1199 C   0  0  0  0  0  0  0  0  0  0  0  0
   54.2291  155.9477   -3.4592 C   0  0  2  0  0  0  0  0  0  0  0  0
   57.0879  156.9964   -5.6456 N   0  0  0  0  0  0  0  0  0  0  0  0
   56.9631  155.6818   -5.8957 N   0  0  0  0  0  0  0  0  0  0  0  0
   52.5074  156.2964   -5.1949 N   0  0  0  0  0  0  0  0  0  0  0  0
   53.9782  157.2272   -2.7850 N   0  0  0  0  0  0  0  0  0  0  0  0
   55.9999  158.2307   -4.3683 H   0  0  0  0  0  0  0  0  0  0  0  0
   54.9064  153.4637   -6.1116 H   0  0  0  0  0  0  0  0  0  0  0  0
   56.5444  153.0434   -5.5534 H   0  0  0  0  0  0  0  0  0  0  0  0
   55.2425  153.2255   -4.3790 H   0  0  0  0  0  0  0  0  0  0  0  0
   57.4009  155.1203   -7.8320 H   0  0  0  0  0  0  0  0  0  0  0  0
   58.8207  155.5746   -6.8297 H   0  0  0  0  0  0  0  0  0  0  0  0
   58.0110  154.0110   -6.5567 H   0  0  0  0  0  0  0  0  0  0  0  0
   53.0932  154.4484   -4.5582 H   0  0  0  0  0  0  0  0  0  0  0  0
   52.1064  155.3632   -3.4110 H   0  0  0  0  0  0  0  0  0  0  0  0
   54.5079  155.2290   -2.6774 H   0  0  0  0  0  0  0  0  0  0  0  0
   51.5351  156.3030   -5.4563 H   0  0  0  0  0  0  0  0  0  0  0  0
   53.1995  156.7138   -5.7954 H   0  0  0  0  0  0  0  0  0  0  0  0
   54.7616  157.8036   -2.5824 H   0  0  0  0  0  0  0  0  0  0  0  0
   53.0808  157.3687   -2.3827 H   0  0  0  0  0  0  0  0  0  0  0  0
  1  2  1  0  0  0  0
  1  8  2  0  0  0  0
  2  3  2  0  0  0  0
  2  7  1  0  0  0  0
  3  4  1  0  0  0  0
  3  9  1  0  0  0  0
  5  9  1  0  0  0  0
  6  7  1  0  0  0  0
  6 10  1  0  0  0  0
  7 11  1  0  0  0  0
  8  9  1  0  0  0  0
  1 12  1  0  0  0  0
  4 13  1  0  0  0  0
  4 14  1  0  0  0  0
  4 15  1  0  0  0  0
  5 16  1  0  0  0  0
  5 17  1  0  0  0  0
  5 18  1  0  0  0  0
  6 19  1  0  0  0  0
  6 20  1  0  0  0  0
  7 21  1  0  0  0  0
 10 22  1  0  0  0  0
 10 23  1  0  0  0  0
 11 24  1  0  0  0  0
 11 25  1  0  0  0  0
M  END
> <FRED Chemgauss4 score>
-5.038053

$$$$
C50284112	P75224048
  -OEChem-05122015083D

 22 23  0     1  0  0  0  0  0999 V2000
   58.0283  161.4319   -3.7692 C   0  0  0  0  0  0  0  0  0  0  0  0
   58.5024  162.7223   -3.8156 C   0  0  0  0  0  0  0  0  0  0  0  0
   56.7734  162.7601   -2.4895 C   0  0  0  0  0  0  0  0  0  0  0  0
   56.9053  161.4565   -2.9081 C   0  0  0  0  0  0  0  0  0  0  0  0
   56.0267  160.3382   -2.5119 C   0  0  0  0  0  0  0  0  0  0  0  0
   55.1702  158.4285   -2.3235 C   0  0  0  0  0  0  0  0  0  0  0  0
   55.5398  156.5337   -3.9560 C   0  0  0  0  0  0  0  0  0  0  0  0
   55.0254  156.9435   -2.5776 C   0  0  2  0  0  0  0  0  0  0  0  0
   55.0056  160.4807   -1.6997 N   0  0  0  0  0  0  0  0  0  0  0  0
   54.4422  159.2244   -1.5756 N   0  0  0  0  0  0  0  0  0  0  0  0
   53.6586  156.5112   -2.3957 N   0  0  0  0  0  0  0  0  0  0  0  0
   57.7431  163.5381   -3.0381 O   0  0  0  0  0  0  0  0  0  0  0  0
   56.1980  159.0617   -2.9523 O   0  0  0  0  0  0  0  0  0  0  0  0
   58.4446  160.5832   -4.2934 H   0  0  0  0  0  0  0  0  0  0  0  0
   59.3263  163.1981   -4.3270 H   0  0  0  0  0  0  0  0  0  0  0  0
   56.0812  163.2732   -1.8369 H   0  0  0  0  0  0  0  0  0  0  0  0
   54.9951  157.0544   -4.7512 H   0  0  0  0  0  0  0  0  0  0  0  0
   56.6033  156.7778   -4.0571 H   0  0  0  0  0  0  0  0  0  0  0  0
   55.4394  155.4560   -4.1273 H   0  0  0  0  0  0  0  0  0  0  0  0
   55.6061  156.3922   -1.8278 H   0  0  0  0  0  0  0  0  0  0  0  0
   53.1023  156.9503   -1.6842 H   0  0  0  0  0  0  0  0  0  0  0  0
   53.3583  155.6582   -2.8326 H   0  0  0  0  0  0  0  0  0  0  0  0
  1  2  2  0  0  0  0
  1  4  1  0  0  0  0
  2 12  1  0  0  0  0
  3  4  2  0  0  0  0
  3 12  1  0  0  0  0
  4  5  1  0  0  0  0
  5  9  2  0  0  0  0
  5 13  1  0  0  0  0
  6  8  1  0  0  0  0
  6 10  2  0  0  0  0
  6 13  1  0  0  0  0
  7  8  1  0  0  0  0
  8 11  1  0  0  0  0
  9 10  1  0  0  0  0
  1 14  1  0  0  0  0
  2 15  1  0  0  0  0
  3 16  1  0  0  0  0
  7 17  1  0  0  0  0
  7 18  1  0  0  0  0
  7 19  1  0  0  0  0
  8 20  1  0  0  0  0
 11 21  1  0  0  0  0
 11 22  1  0  0  0  0
M  END
> <FRED Chemgauss4 score>
-5.035978

$$$$
C84386632	P132041144
  -OEChem-05122015083D

 22 22  0     1  0  0  0  0  0999 V2000
   55.2848  160.4052   -2.4795 C   0  0  0  0  0  0  0  0  0  0  0  0
   55.2808  159.2101   -2.3651 C   0  0  0  0  0  0  0  0  0  0  0  0
   56.1645  157.4027   -4.4684 C   0  0  0  0  0  0  0  0  0  0  0  0
   54.0212  156.3004   -3.7277 C   0  0  0  0  0  0  0  0  0  0  0  0
   56.0221  156.7397   -5.8173 C   0  0  0  0  0  0  0  0  0  0  0  0
   55.2815  155.4236   -5.7209 C   0  0  0  0  0  0  0  0  0  0  0  0
   53.9202  155.6071   -5.0724 C   0  0  2  0  0  0  0  0  0  0  0  0
   55.2758  157.7523   -2.2200 C   0  0  0  0  0  0  0  0  0  0  0  0
   55.1620  157.1053   -3.5233 N   0  0  0  0  0  0  0  0  0  0  0  0
   52.9960  156.3805   -5.8978 N   0  0  0  0  0  0  0  0  0  0  0  0
   57.0886  158.1970   -4.2774 O   0  0  0  0  0  0  0  0  0  0  0  0
   53.1053  156.1812   -2.9087 O   0  0  0  0  0  0  0  0  0  0  0  0
   55.2879  161.4652   -2.5814 H   0  0  0  0  0  0  0  0  0  0  0  0
   55.4724  157.4195   -6.4795 H   0  0  0  0  0  0  0  0  0  0  0  0
   57.0257  156.5990   -6.2370 H   0  0  0  0  0  0  0  0  0  0  0  0
   55.1731  154.9860   -6.7350 H   0  0  0  0  0  0  0  0  0  0  0  0
   55.8915  154.7015   -5.1430 H   0  0  0  0  0  0  0  0  0  0  0  0
   53.4582  154.6068   -4.8731 H   0  0  0  0  0  0  0  0  0  0  0  0
   54.4395  157.4357   -1.5892 H   0  0  0  0  0  0  0  0  0  0  0  0
   56.1983  157.4202   -1.7331 H   0  0  0  0  0  0  0  0  0  0  0  0
   52.2562  156.8675   -5.4414 H   0  0  0  0  0  0  0  0  0  0  0  0
   53.0117  156.2314   -6.8830 H   0  0  0  0  0  0  0  0  0  0  0  0
  1  2  3  0  0  0  0
  2  8  1  0  0  0  0
  3  5  1  0  0  0  0
  3  9  1  0  0  0  0
  3 11  2  0  0  0  0
  4  7  1  0  0  0  0
  4  9  1  0  0  0  0
  4 12  2  0  0  0  0
  5  6  1  0  0  0  0
  6  7  1  0  0  0  0
  7 10  1  0  0  0  0
  8  9  1  0  0  0  0
  1 13  1  0  0  0  0
  5 14  1  0  0  0  0
  5 15  1  0  0  0  0
  6 16  1  0  0  0  0
  6 17  1  0  0  0  0
  7 18  1  0  0  0  0
  8 19  1  0  0  0  0
  8 20  1  0  0  0  0
 10 21  1  0  0  0  0
 10 22  1  0  0  0  0
M  END
> <FRED Chemgauss4 score>
-5.035516

$$$$
C85182711	P133271188
  -OEChem-05122015083D

 22 22  0     0  0  0  0  0  0999 V2000
   57.0330  159.3073   -0.3590 C   0  0  0  0  0  0  0  0  0  0  0  0
   58.3343  160.0555   -1.8681 C   0  0  0  0  0  0  0  0  0  0  0  0
   56.4185  159.0128   -1.5532 C   0  0  0  0  0  0  0  0  0  0  0  0
   55.1368  158.3306   -1.7978 C   0  0  0  0  0  0  0  0  0  0  0  0
   53.3918  156.3735   -3.9119 C   0  0  0  0  0  0  0  0  0  0  0  0
   57.0762  159.4419   -3.9411 C   0  0  0  0  0  0  0  0  0  0  0  0
   58.2250  159.9566   -0.5618 N   0  0  0  0  0  0  0  0  0  0  0  0
   54.9252  157.6265   -2.8615 N   0  0  0  0  0  0  0  0  0  0  0  0
   53.6402  157.0927   -2.8490 N   0  0  0  0  0  0  0  0  0  0  0  0
   57.2637  159.4987   -2.5107 N   0  0  0  0  0  0  0  0  0  0  0  0
   52.2185  155.7133   -4.1992 N   0  0  0  0  0  0  0  0  0  0  0  0
   54.3402  156.2057   -4.8916 N   0  0  0  0  0  0  0  0  0  0  0  0
   56.6808  159.0868    0.6387 H   0  0  0  0  0  0  0  0  0  0  0  0
   59.1567  160.5149   -2.3995 H   0  0  0  0  0  0  0  0  0  0  0  0
   54.3542  158.4468   -1.0246 H   0  0  0  0  0  0  0  0  0  0  0  0
   57.5254  158.5135   -4.3036 H   0  0  0  0  0  0  0  0  0  0  0  0
   56.0069  159.4638   -4.1693 H   0  0  0  0  0  0  0  0  0  0  0  0
   57.5589  160.3074   -4.4035 H   0  0  0  0  0  0  0  0  0  0  0  0
   51.4252  155.7443   -3.5683 H   0  0  0  0  0  0  0  0  0  0  0  0
   52.1154  155.1762   -5.0534 H   0  0  0  0  0  0  0  0  0  0  0  0
   55.2548  156.6372   -4.8150 H   0  0  0  0  0  0  0  0  0  0  0  0
   54.1540  155.6510   -5.7199 H   0  0  0  0  0  0  0  0  0  0  0  0
  1  3  2  0  0  0  0
  1  7  1  0  0  0  0
  2  7  2  0  0  0  0
  2 10  1  0  0  0  0
  3  4  1  0  0  0  0
  3 10  1  0  0  0  0
  4  8  2  0  0  0  0
  5  9  2  0  0  0  0
  5 11  1  0  0  0  0
  5 12  1  0  0  0  0
  6 10  1  0  0  0  0
  8  9  1  0  0  0  0
  1 13  1  0  0  0  0
  2 14  1  0  0  0  0
  4 15  1  0  0  0  0
  6 16  1  0  0  0  0
  6 17  1  0  0  0  0
  6 18  1  0  0  0  0
 11 19  1  0  0  0  0
 11 20  1  0  0  0  0
 12 21  1  0  0  0  0
 12 22  1  0  0  0  0
M  END
> <FRED Chemgauss4 score>
-5.031217

$$$$
C88001018	P137647184
  -OEChem-05122015083D

 25 26  0     1  0  0  0  0  0999 V2000
   55.4326  155.6153   -4.3880 C   0  0  0  0  0  0  0  0  0  0  0  0
   54.6852  157.5986   -3.9270 C   0  0  0  0  0  0  0  0  0  0  0  0
   56.2006  154.6301   -5.0893 C   0  0  0  0  0  0  0  0  0  0  0  0
   57.0252  156.3071   -6.4363 C   0  0  0  0  0  0  0  0  0  0  0  0
   56.3308  157.2856   -5.8212 C   0  0  0  0  0  0  0  0  0  0  0  0
   56.3831  160.0968   -2.1505 C   0  0  0  0  0  0  0  0  0  0  0  0
   54.1166  159.6963   -2.6250 C   0  0  0  0  0  0  0  0  0  0  0  0
   54.4704  159.0557   -3.9873 C   0  0  2  0  0  0  0  0  0  0  0  0
   54.6106  155.4783   -3.3786 N   0  0  0  0  0  0  0  0  0  0  0  0
   54.1323  156.7479   -3.0843 N   0  0  0  0  0  0  0  0  0  0  0  0
   56.9774  154.9604   -6.0868 N   0  0  0  0  0  0  0  0  0  0  0  0
   55.5142  156.9249   -4.7694 N   0  0  0  0  0  0  0  0  0  0  0  0
   53.4313  159.4310   -4.9446 N   0  0  0  0  0  0  0  0  0  0  0  0
   55.1759  159.5052   -1.6928 O   0  0  0  0  0  0  0  0  0  0  0  0
   56.1344  153.5751   -4.7801 H   0  0  0  0  0  0  0  0  0  0  0  0
   57.6797  156.5483   -7.2674 H   0  0  0  0  0  0  0  0  0  0  0  0
   56.3839  158.3274   -6.1094 H   0  0  0  0  0  0  0  0  0  0  0  0
   57.1729  159.9319   -1.4135 H   0  0  0  0  0  0  0  0  0  0  0  0
   56.2300  161.1682   -2.3028 H   0  0  0  0  0  0  0  0  0  0  0  0
   56.6693  159.6335   -3.0977 H   0  0  0  0  0  0  0  0  0  0  0  0
   53.9715  160.7756   -2.7448 H   0  0  0  0  0  0  0  0  0  0  0  0
   53.2035  159.2643   -2.2011 H   0  0  0  0  0  0  0  0  0  0  0  0
   55.3734  159.5823   -4.3641 H   0  0  0  0  0  0  0  0  0  0  0  0
   53.3679  158.9127   -5.7930 H   0  0  0  0  0  0  0  0  0  0  0  0
   52.9666  160.3023   -4.8124 H   0  0  0  0  0  0  0  0  0  0  0  0
  1  3  1  0  0  0  0
  1  9  2  0  0  0  0
  1 12  1  0  0  0  0
  2  8  1  0  0  0  0
  2 10  2  0  0  0  0
  2 12  1  0  0  0  0
  3 11  2  0  0  0  0
  4  5  2  0  0  0  0
  4 11  1  0  0  0  0
  5 12  1  0  0  0  0
  6 14  1  0  0  0  0
  7  8  1  0  0  0  0
  7 14  1  0  0  0  0
  8 13  1  0  0  0  0
  9 10  1  0  0  0  0
  3 15  1  0  0  0  0
  4 16  1  0  0  0  0
  5 17  1  0  0  0  0
  6 18  1  0  0  0  0
  6 19  1  0  0  0  0
  6 20  1  0  0  0  0
  7 21  1  0  0  0  0
  7 22  1  0  0  0  0
  8 23  1  0  0  0  0
 13 24  1  0  0  0  0
 13 25  1  0  0  0  0
M  END
> <FRED Chemgauss4 score>
-5.030128

$$$$
C85170083	P133262211
  -OEChem-05122015083D

 29 30  0     1  0  0  0  0  0999 V2000
   53.9888  156.5335   -3.1747 C   0  0  0  0  0  0  0  0  0  0  0  0
   55.1868  158.2298   -2.7076 C   0  0  0  0  0  0  0  0  0  0  0  0
   54.9277  156.6074   -4.1764 C   0  0  0  0  0  0  0  0  0  0  0  0
   58.0537  153.4550   -6.3134 C   0  0  0  0  0  0  0  0  0  0  0  0
   57.9722  154.8249   -6.9186 C   0  0  0  0  0  0  0  0  0  0  0  0
   56.7397  154.1867   -6.3386 C   0  0  0  0  0  0  0  0  0  0  0  0
   56.8153  158.2116   -4.6057 C   0  0  0  0  0  0  0  0  0  0  0  0
   53.8840  155.1084   -5.9572 C   0  0  0  0  0  0  0  0  0  0  0  0
   55.1692  155.7398   -5.3995 C   0  0  2  0  0  0  0  0  0  0  0  0
   54.1553  157.5464   -2.2637 N   0  0  0  0  0  0  0  0  0  0  0  0
   55.6877  157.6992   -3.8639 N   0  0  0  0  0  0  0  0  0  0  0  0
   52.9351  156.1020   -6.3875 N   0  0  0  0  0  0  0  0  0  0  0  0
   56.1563  154.6931   -5.1084 N   0  0  0  0  0  0  0  0  0  0  0  0
   53.2004  155.8035   -3.0610 H   0  0  0  0  0  0  0  0  0  0  0  0
   55.6110  159.1077   -2.2397 H   0  0  0  0  0  0  0  0  0  0  0  0
   58.1948  152.6156   -6.9834 H   0  0  0  0  0  0  0  0  0  0  0  0
   58.5551  153.3532   -5.3586 H   0  0  0  0  0  0  0  0  0  0  0  0
   58.4197  155.6456   -6.3710 H   0  0  0  0  0  0  0  0  0  0  0  0
   58.0626  154.9042   -7.9951 H   0  0  0  0  0  0  0  0  0  0  0  0
   56.0022  153.8298   -7.0506 H   0  0  0  0  0  0  0  0  0  0  0  0
   57.7180  157.7269   -4.2247 H   0  0  0  0  0  0  0  0  0  0  0  0
   56.6825  157.9910   -5.6685 H   0  0  0  0  0  0  0  0  0  0  0  0
   56.8752  159.2950   -4.4695 H   0  0  0  0  0  0  0  0  0  0  0  0
   54.1073  154.4932   -6.8363 H   0  0  0  0  0  0  0  0  0  0  0  0
   53.3789  154.4692   -5.2252 H   0  0  0  0  0  0  0  0  0  0  0  0
   55.6008  156.3695   -6.1885 H   0  0  0  0  0  0  0  0  0  0  0  0
   51.9574  155.8638   -6.4200 H   0  0  0  0  0  0  0  0  0  0  0  0
   53.2713  156.9375   -6.8377 H   0  0  0  0  0  0  0  0  0  0  0  0
   55.6914  153.9377   -4.6130 H   0  0  0  0  0  0  0  0  0  0  0  0
  1  3  2  0  0  0  0
  1 10  1  0  0  0  0
  2 10  2  0  0  0  0
  2 11  1  0  0  0  0
  3  9  1  0  0  0  0
  3 11  1  0  0  0  0
  4  5  1  0  0  0  0
  4  6  1  0  0  0  0
  5  6  1  0  0  0  0
  6 13  1  0  0  0  0
  7 11  1  0  0  0  0
  8  9  1  0  0  0  0
  8 12  1  0  0  0  0
  9 13  1  0  0  0  0
  1 14  1  0  0  0  0
  2 15  1  0  0  0  0
  4 16  1  0  0  0  0
  4 17  1  0  0  0  0
  5 18  1  0  0  0  0
  5 19  1  0  0  0  0
  6 20  1  0  0  0  0
  7 21  1  0  0  0  0
  7 22  1  0  0  0  0
  7 23  1  0  0  0  0
  8 24  1  0  0  0  0
  8 25  1  0  0  0  0
  9 26  1  0  0  0  0
 12 27  1  0  0  0  0
 12 28  1  0  0  0  0
 13 29  1  0  0  0  0
M  END
> <FRED Chemgauss4 score>
-5.030049

$$$$
C43016649	P65067557
  -OEChem-05122015083D

 36 37  0     1  0  0  0  0  0999 V2000
   56.6543  155.3186   -5.5378 C   0  0  0  0  0  0  0  0  0  0  0  0
   56.1501  156.2499   -4.6301 C   0  0  0  0  0  0  0  0  0  0  0  0
   57.3265  155.7519   -6.6807 C   0  0  0  0  0  0  0  0  0  0  0  0
   56.9902  158.0478   -6.0081 C   0  0  0  0  0  0  0  0  0  0  0  0
   57.1571  162.0143   -4.2769 C   0  0  0  0  0  0  0  0  0  0  0  0
   56.3180  157.6145   -4.8652 C   0  0  0  0  0  0  0  0  0  0  0  0
   57.4944  157.1165   -6.9158 C   0  0  0  0  0  0  0  0  0  0  0  0
   58.2164  161.2133   -3.8099 C   0  0  0  0  0  0  0  0  0  0  0  0
   56.0893  161.1547   -4.3641 C   0  0  0  0  0  0  0  0  0  0  0  0
   59.6029  161.6284   -3.5381 C   0  0  0  0  0  0  0  0  0  0  0  0
   54.6957  161.3815   -4.7885 C   0  0  0  0  0  0  0  0  0  0  0  0
   55.5173  159.2589   -1.3902 C   0  0  0  0  0  0  0  0  0  0  0  0
   55.7639  158.6349   -3.8703 C   0  0  1  0  0  0  0  0  0  0  0  0
   55.6185  158.1122   -2.4044 C   0  0  2  0  0  0  0  0  0  0  0  0
   57.8545  159.9426   -3.6141 N   0  0  0  0  0  0  0  0  0  0  0  0
   56.5558  159.9386   -3.9596 N   0  0  0  0  0  0  0  0  0  0  0  0
   54.3996  157.3026   -2.2635 N   0  0  0  0  0  0  0  0  0  0  0  0
   58.3229  157.6505   -8.3266 Cl  0  0  0  0  0  0  0  0  0  0  0  0
   56.5232  154.2561   -5.3544 H   0  0  0  0  0  0  0  0  0  0  0  0
   55.6275  155.9033   -3.7423 H   0  0  0  0  0  0  0  0  0  0  0  0
   57.7140  155.0147   -7.3796 H   0  0  0  0  0  0  0  0  0  0  0  0
   57.1189  159.1129   -6.1866 H   0  0  0  0  0  0  0  0  0  0  0  0
   57.1659  163.0676   -4.5176 H   0  0  0  0  0  0  0  0  0  0  0  0
   59.7228  161.9662   -2.4943 H   0  0  0  0  0  0  0  0  0  0  0  0
   60.3245  160.8091   -3.7070 H   0  0  0  0  0  0  0  0  0  0  0  0
   59.9270  162.4559   -4.1944 H   0  0  0  0  0  0  0  0  0  0  0  0
   54.5776  161.2196   -5.8731 H   0  0  0  0  0  0  0  0  0  0  0  0
   53.9893  160.7086   -4.2718 H   0  0  0  0  0  0  0  0  0  0  0  0
   54.3552  162.4079   -4.5652 H   0  0  0  0  0  0  0  0  0  0  0  0
   54.6778  159.9229   -1.6175 H   0  0  0  0  0  0  0  0  0  0  0  0
   55.3514  158.8737   -0.3772 H   0  0  0  0  0  0  0  0  0  0  0  0
   56.4320  159.8624   -1.3742 H   0  0  0  0  0  0  0  0  0  0  0  0
   54.7371  158.8647   -4.1969 H   0  0  0  0  0  0  0  0  0  0  0  0
   56.4729  157.4855   -2.1252 H   0  0  0  0  0  0  0  0  0  0  0  0
   53.9970  157.2321   -1.3592 H   0  0  0  0  0  0  0  0  0  0  0  0
   54.1541  156.7070   -3.0185 H   0  0  0  0  0  0  0  0  0  0  0  0
  1  2  2  0  0  0  0
  1  3  1  0  0  0  0
  2  6  1  0  0  0  0
  3  7  2  0  0  0  0
  4  6  2  0  0  0  0
  4  7  1  0  0  0  0
  5  8  1  0  0  0  0
  5  9  2  0  0  0  0
  6 13  1  0  0  0  0
  7 18  1  0  0  0  0
  8 10  1  0  0  0  0
  8 15  2  0  0  0  0
  9 11  1  0  0  0  0
  9 16  1  0  0  0  0
 12 14  1  0  0  0  0
 13 14  1  0  0  0  0
 13 16  1  0  0  0  0
 14 17  1  0  0  0  0
 15 16  1  0  0  0  0
  1 19  1  0  0  0  0
  2 20  1  0  0  0  0
  3 21  1  0  0  0  0
  4 22  1  0  0  0  0
  5 23  1  0  0  0  0
 10 24  1  0  0  0  0
 10 25  1  0  0  0  0
 10 26  1  0  0  0  0
 11 27  1  0  0  0  0
 11 28  1  0  0  0  0
 11 29  1  0  0  0  0
 12 30  1  0  0  0  0
 12 31  1  0  0  0  0
 12 32  1  0  0  0  0
 13 33  1  0  0  0  0
 14 34  1  0  0  0  0
 17 35  1  0  0  0  0
 17 36  1  0  0  0  0
M  END
> <FRED Chemgauss4 score>
-5.025186

$$$$
C82887367	P129564044
  -OEChem-05122015083D

 28 27  0     1  0  0  0  0  0999 V2000
   58.0300  156.8071   -6.0380 C   0  0  0  0  0  0  0  0  0  0  0  0
   56.5657  156.8957   -6.3038 C   0  0  0  0  0  0  0  0  0  0  0  0
   54.3682  156.2943   -5.5410 C   0  0  0  0  0  0  0  0  0  0  0  0
   56.2150  154.7997   -5.1829 C   0  0  0  0  0  0  0  0  0  0  0  0
   53.7247  156.0948   -3.0803 C   0  0  0  0  0  0  0  0  0  0  0  0
   53.5344  155.5435   -4.4952 C   0  0  1  0  0  0  0  0  0  0  0  0
   55.9632  154.0635   -6.4746 C   0  0  0  0  0  0  0  0  0  0  0  0
   52.1327  155.6081   -4.8556 N   0  0  0  0  0  0  0  0  0  0  0  0
   55.7981  156.2003   -5.2694 N   0  0  1  0  0  0  0  0  0  0  0  0
   53.3264  157.4617   -3.0505 O   0  0  0  0  0  0  0  0  0  0  0  0
   56.3586  152.7755   -6.3693 F   0  0  0  0  0  0  0  0  0  0  0  0
   54.6516  154.0639   -6.7948 F   0  0  0  0  0  0  0  0  0  0  0  0
   56.6452  154.6182   -7.4992 F   0  0  0  0  0  0  0  0  0  0  0  0
   58.2809  157.2661   -5.0756 H   0  0  0  0  0  0  0  0  0  0  0  0
   58.3643  155.7639   -6.0386 H   0  0  0  0  0  0  0  0  0  0  0  0
   58.5824  157.3403   -6.8209 H   0  0  0  0  0  0  0  0  0  0  0  0
   56.3221  156.4355   -7.2662 H   0  0  0  0  0  0  0  0  0  0  0  0
   56.2364  157.9388   -6.3186 H   0  0  0  0  0  0  0  0  0  0  0  0
   54.0806  157.3526   -5.5551 H   0  0  0  0  0  0  0  0  0  0  0  0
   54.1661  155.8975   -6.5428 H   0  0  0  0  0  0  0  0  0  0  0  0
   57.2796  154.7858   -4.9315 H   0  0  0  0  0  0  0  0  0  0  0  0
   55.6591  154.3389   -4.3612 H   0  0  0  0  0  0  0  0  0  0  0  0
   53.1195  155.5424   -2.3533 H   0  0  0  0  0  0  0  0  0  0  0  0
   54.7738  156.0519   -2.7724 H   0  0  0  0  0  0  0  0  0  0  0  0
   53.7899  154.4767   -4.5105 H   0  0  0  0  0  0  0  0  0  0  0  0
   51.4454  155.4624   -4.1406 H   0  0  0  0  0  0  0  0  0  0  0  0
   51.8850  155.5919   -5.8269 H   0  0  0  0  0  0  0  0  0  0  0  0
   53.4623  157.7704   -2.1409 H   0  0  0  0  0  0  0  0  0  0  0  0
  1  2  1  0  0  0  0
  2  9  1  0  0  0  0
  3  6  1  0  0  0  0
  3  9  1  0  0  0  0
  4  7  1  0  0  0  0
  4  9  1  0  0  0  0
  5  6  1  0  0  0  0
  5 10  1  0  0  0  0
  6  8  1  0  0  0  0
  7 11  1  0  0  0  0
  7 12  1  0  0  0  0
  7 13  1  0  0  0  0
  1 14  1  0  0  0  0
  1 15  1  0  0  0  0
  1 16  1  0  0  0  0
  2 17  1  0  0  0  0
  2 18  1  0  0  0  0
  3 19  1  0  0  0  0
  3 20  1  0  0  0  0
  4 21  1  0  0  0  0
  4 22  1  0  0  0  0
  5 23  1  0  0  0  0
  5 24  1  0  0  0  0
  6 25  1  0  0  0  0
  8 26  1  0  0  0  0
  8 27  1  0  0  0  0
 10 28  1  0  0  0  0
M  END
> <FRED Chemgauss4 score>
-5.022810

$$$$
C40750612	P61870376
  -OEChem-05122015083D

 26 26  0     1  0  0  0  0  0999 V2000
   58.5485  156.3950   -6.3791 C   0  0  0  0  0  0  0  0  0  0  0  0
   57.3076  157.0290   -5.8153 C   0  0  2  0  0  0  0  0  0  0  0  0
   56.0969  156.2158   -5.5063 C   0  0  0  0  0  0  0  0  0  0  0  0
   54.0569  156.2285   -4.2371 C   0  0  0  0  0  0  0  0  0  0  0  0
   54.3652  157.7964   -6.0313 C   0  0  0  0  0  0  0  0  0  0  0  0
   54.5744  155.9446   -2.8387 C   0  0  0  0  0  0  0  0  0  0  0  0
   53.6598  159.0066   -5.4469 C   0  0  0  0  0  0  0  0  0  0  0  0
   55.0262  157.0498   -4.9614 N   0  0  0  0  0  0  0  0  0  0  0  0
   57.6248  157.1181   -7.2082 O   0  0  0  0  0  0  0  0  0  0  0  0
   53.6132  155.1761   -2.1265 O   0  0  0  0  0  0  0  0  0  0  0  0
   52.6652  158.5748   -4.5271 O   0  0  0  0  0  0  0  0  0  0  0  0
   59.5011  156.8635   -6.1692 H   0  0  0  0  0  0  0  0  0  0  0  0
   58.5822  155.3190   -6.4884 H   0  0  0  0  0  0  0  0  0  0  0  0
   57.4002  157.9203   -5.2112 H   0  0  0  0  0  0  0  0  0  0  0  0
   56.3309  155.4463   -4.7646 H   0  0  0  0  0  0  0  0  0  0  0  0
   55.7146  155.7305   -6.4091 H   0  0  0  0  0  0  0  0  0  0  0  0
   53.9044  155.3018   -4.7994 H   0  0  0  0  0  0  0  0  0  0  0  0
   53.1121  156.7782   -4.1892 H   0  0  0  0  0  0  0  0  0  0  0  0
   53.6573  157.1269   -6.5300 H   0  0  0  0  0  0  0  0  0  0  0  0
   55.1283  158.1105   -6.7498 H   0  0  0  0  0  0  0  0  0  0  0  0
   54.7248  156.8836   -2.2970 H   0  0  0  0  0  0  0  0  0  0  0  0
   55.5190  155.3916   -2.8636 H   0  0  0  0  0  0  0  0  0  0  0  0
   53.1625  159.5707   -6.2421 H   0  0  0  0  0  0  0  0  0  0  0  0
   54.3596  159.6671   -4.9246 H   0  0  0  0  0  0  0  0  0  0  0  0
   53.9815  155.0176   -1.2425 H   0  0  0  0  0  0  0  0  0  0  0  0
   52.2406  159.3752   -4.1785 H   0  0  0  0  0  0  0  0  0  0  0  0
  1  2  1  0  0  0  0
  1  9  1  0  0  0  0
  2  3  1  0  0  0  0
  2  9  1  0  0  0  0
  3  8  1  0  0  0  0
  4  6  1  0  0  0  0
  4  8  1  0  0  0  0
  5  7  1  0  0  0  0
  5  8  1  0  0  0  0
  6 10  1  0  0  0  0
  7 11  1  0  0  0  0
  1 12  1  0  0  0  0
  1 13  1  0  0  0  0
  2 14  1  0  0  0  0
  3 15  1  0  0  0  0
  3 16  1  0  0  0  0
  4 17  1  0  0  0  0
  4 18  1  0  0  0  0
  5 19  1  0  0  0  0
  5 20  1  0  0  0  0
  6 21  1  0  0  0  0
  6 22  1  0  0  0  0
  7 23  1  0  0  0  0
  7 24  1  0  0  0  0
 10 25  1  0  0  0  0
 11 26  1  0  0  0  0
M  END
> <FRED Chemgauss4 score>
-5.022645

$$$$
Aspartate
  -OEChem-05122015083D

 16 15  0     1  0  0  0  0  0999 V2000
   53.4285  157.9608   -5.5722 C   0  0  0  0  0  0  0  0  0  0  0  0
   54.1072  155.9579   -3.1402 C   0  0  0  0  0  0  0  0  0  0  0  0
   54.0844  156.5959   -5.5591 C   0  0  0  0  0  0  0  0  0  0  0  0
   53.4930  155.6628   -4.4987 C   0  0  2  0  0  0  0  0  0  0  0  0
   52.0544  155.7698   -4.4572 N   0  0  0  0  0  0  0  0  0  0  0  0
   53.3831  158.7382   -4.6292 O   0  0  0  0  0  0  0  0  0  0  0  0
   54.9684  156.8088   -2.9525 O   0  0  0  0  0  0  0  0  0  0  0  0
   52.8768  158.2333   -6.7839 O   0  0  0  0  0  0  0  0  0  0  0  0
   53.6125  155.1821   -2.1461 O   0  0  0  0  0  0  0  0  0  0  0  0
   53.9438  156.1670   -6.5586 H   0  0  0  0  0  0  0  0  0  0  0  0
   55.1594  156.7289   -5.3871 H   0  0  0  0  0  0  0  0  0  0  0  0
   53.7095  154.6120   -4.7219 H   0  0  0  0  0  0  0  0  0  0  0  0
   51.5730  155.5262   -3.6091 H   0  0  0  0  0  0  0  0  0  0  0  0
   51.5504  155.8849   -5.3193 H   0  0  0  0  0  0  0  0  0  0  0  0
   52.4345  159.1067   -6.8507 H   0  0  0  0  0  0  0  0  0  0  0  0
   54.0255  155.3879   -1.2804 H   0  0  0  0  0  0  0  0  0  0  0  0
  1  3  1  0  0  0  0
  1  6  2  0  0  0  0
  1  8  1  0  0  0  0
  2  4  1  0  0  0  0
  2  7  2  0  0  0  0
  2  9  1  0  0  0  0
  3  4  1  0  0  0  0
  4  5  1  0  0  0  0
  3 10  1  0  0  0  0
  3 11  1  0  0  0  0
  4 12  1  0  0  0  0
  5 13  1  0  0  0  0
  5 14  1  0  0  0  0
  8 15  1  0  0  0  0
  9 16  1  0  0  0  0
M  END
> <FRED Chemgauss4 score>
-5.016778

$$$$
C42040499	P63626359
  -OEChem-05122015083D

 17 17  0     1  0  0  0  0  0999 V2000
   54.1613  155.9384   -3.7801 C   0  0  0  0  0  0  0  0  0  0  0  0
   54.0548  155.5547   -5.9137 C   0  0  0  0  0  0  0  0  0  0  0  0
   55.7525  157.4845   -2.6634 C   0  0  0  0  0  0  0  0  0  0  0  0
   54.7579  156.3522   -2.4815 C   0  0  1  0  0  0  0  0  0  0  0  0
   52.9457  155.5013   -3.9291 N   0  0  0  0  0  0  0  0  0  0  0  0
   54.8894  156.0011   -4.9135 N   0  0  0  0  0  0  0  0  0  0  0  0
   52.8490  155.2505   -5.2682 N   0  0  0  0  0  0  0  0  0  0  0  0
   53.6422  156.7462   -1.6660 N   0  0  0  0  0  0  0  0  0  0  0  0
   54.3045  155.4453   -7.1044 O   0  0  0  0  0  0  0  0  0  0  0  0
   55.2864  158.3553   -3.1388 H   0  0  0  0  0  0  0  0  0  0  0  0
   56.1569  157.8109   -1.6994 H   0  0  0  0  0  0  0  0  0  0  0  0
   56.5872  157.1689   -3.2980 H   0  0  0  0  0  0  0  0  0  0  0  0
   55.2325  155.4869   -2.0060 H   0  0  0  0  0  0  0  0  0  0  0  0
   55.8488  156.3115   -5.0090 H   0  0  0  0  0  0  0  0  0  0  0  0
   52.0218  154.8945   -5.7299 H   0  0  0  0  0  0  0  0  0  0  0  0
   53.8017  157.3400   -0.8671 H   0  0  0  0  0  0  0  0  0  0  0  0
   52.7604  156.2698   -1.7750 H   0  0  0  0  0  0  0  0  0  0  0  0
  1  4  1  0  0  0  0
  1  5  2  0  0  0  0
  1  6  1  0  0  0  0
  2  6  1  0  0  0  0
  2  7  1  0  0  0  0
  2  9  2  0  0  0  0
  3  4  1  0  0  0  0
  4  8  1  0  0  0  0
  5  7  1  0  0  0  0
  3 10  1  0  0  0  0
  3 11  1  0  0  0  0
  3 12  1  0  0  0  0
  4 13  1  0  0  0  0
  6 14  1  0  0  0  0
  7 15  1  0  0  0  0
  8 16  1  0  0  0  0
  8 17  1  0  0  0  0
M  END
> <FRED Chemgauss4 score>
-5.009084

$$$$
C41050725	P62314175
  -OEChem-05122015083D

 18 18  0     1  0  0  0  0  0999 V2000
   55.2710  158.0334   -2.7536 C   0  0  0  0  0  0  0  0  0  0  0  0
   54.2058  156.2623   -3.0460 C   0  0  0  0  0  0  0  0  0  0  0  0
   56.0621  159.2617   -0.6902 C   0  0  0  0  0  0  0  0  0  0  0  0
   55.6816  159.3662   -2.1657 C   0  0  2  0  0  0  0  0  0  0  0  0
   54.2073  157.3241   -2.2740 N   0  0  0  0  0  0  0  0  0  0  0  0
   55.9277  157.4773   -3.7738 N   0  0  0  0  0  0  0  0  0  0  0  0
   55.2263  156.3458   -3.9411 N   0  0  0  0  0  0  0  0  0  0  0  0
   53.3928  155.1857   -3.0668 N   0  0  0  0  0  0  0  0  0  0  0  0
   54.6527  160.3627   -2.3561 N   0  0  0  0  0  0  0  0  0  0  0  0
   55.2243  158.8868   -0.0923 H   0  0  0  0  0  0  0  0  0  0  0  0
   56.9064  158.5755   -0.5591 H   0  0  0  0  0  0  0  0  0  0  0  0
   56.3667  160.2293   -0.2758 H   0  0  0  0  0  0  0  0  0  0  0  0
   56.5560  159.7448   -2.7092 H   0  0  0  0  0  0  0  0  0  0  0  0
   55.4974  155.6960   -4.6695 H   0  0  0  0  0  0  0  0  0  0  0  0
   52.6368  155.0552   -2.3778 H   0  0  0  0  0  0  0  0  0  0  0  0
   53.5451  154.3954   -3.7115 H   0  0  0  0  0  0  0  0  0  0  0  0
   54.1043  160.3382   -3.1970 H   0  0  0  0  0  0  0  0  0  0  0  0
   54.6410  161.1677   -1.7556 H   0  0  0  0  0  0  0  0  0  0  0  0
  1  4  1  0  0  0  0
  1  5  1  0  0  0  0
  1  6  2  0  0  0  0
  2  5  2  0  0  0  0
  2  7  1  0  0  0  0
  2  8  1  0  0  0  0
  3  4  1  0  0  0  0
  4  9  1  0  0  0  0
  6  7  1  0  0  0  0
  3 10  1  0  0  0  0
  3 11  1  0  0  0  0
  3 12  1  0  0  0  0
  4 13  1  0  0  0  0
  7 14  1  0  0  0  0
  8 15  1  0  0  0  0
  8 16  1  0  0  0  0
  9 17  1  0  0  0  0
  9 18  1  0  0  0  0
M  END
> <FRED Chemgauss4 score>
-5.007403

$$$$
C34321792	P151021124
  -OEChem-05122015083D

 24 24  0     1  0  0  0  0  0999 V2000
   56.4999  156.9212   -6.1270 C   0  0  0  0  0  0  0  0  0  0  0  0
   54.6486  156.6850   -3.5723 C   0  0  0  0  0  0  0  0  0  0  0  0
   57.2907  159.2314   -4.1524 C   0  0  0  0  0  0  0  0  0  0  0  0
   58.0090  157.9123   -4.4231 C   0  0  0  0  0  0  0  0  0  0  0  0
   56.0489  158.7933   -3.3908 C   0  0  0  0  0  0  0  0  0  0  0  0
   56.8643  156.9365   -4.7016 C   0  0  1  0  0  0  0  0  0  0  0  0
   54.5930  155.3219   -4.2149 C   0  0  0  0  0  0  0  0  0  0  0  0
   56.2125  156.9091   -7.2510 N   0  0  0  0  0  0  0  0  0  0  0  0
   55.7609  157.4497   -3.8883 N   0  0  0  0  0  0  0  0  0  0  0  0
   52.7148  155.6427   -5.5697 N   0  0  0  0  0  0  0  0  0  0  0  0
   53.2101  154.9955   -4.3876 N   0  0  0  0  0  0  0  0  0  0  0  0
   53.7480  157.0540   -2.8166 O   0  0  0  0  0  0  0  0  0  0  0  0
   57.9008  159.9414   -3.5873 H   0  0  0  0  0  0  0  0  0  0  0  0
   57.0062  159.7039   -5.1001 H   0  0  0  0  0  0  0  0  0  0  0  0
   58.7374  157.9900   -5.2363 H   0  0  0  0  0  0  0  0  0  0  0  0
   58.5435  157.6049   -3.5152 H   0  0  0  0  0  0  0  0  0  0  0  0
   56.2464  158.7183   -2.3158 H   0  0  0  0  0  0  0  0  0  0  0  0
   55.1983  159.4609   -3.5526 H   0  0  0  0  0  0  0  0  0  0  0  0
   57.1172  155.9214   -4.3767 H   0  0  0  0  0  0  0  0  0  0  0  0
   55.0849  154.6151   -3.5532 H   0  0  0  0  0  0  0  0  0  0  0  0
   55.1075  155.3761   -5.1697 H   0  0  0  0  0  0  0  0  0  0  0  0
   51.9764  156.2956   -5.3085 H   0  0  0  0  0  0  0  0  0  0  0  0
   53.4525  156.2092   -5.9865 H   0  0  0  0  0  0  0  0  0  0  0  0
   53.0853  153.9817   -4.5035 H   0  0  0  0  0  0  0  0  0  0  0  0
  1  6  1  0  0  0  0
  1  8  3  0  0  0  0
  2  7  1  0  0  0  0
  2  9  1  0  0  0  0
  2 12  2  0  0  0  0
  3  4  1  0  0  0  0
  3  5  1  0  0  0  0
  4  6  1  0  0  0  0
  5  9  1  0  0  0  0
  6  9  1  0  0  0  0
  7 11  1  0  0  0  0
 10 11  1  0  0  0  0
  3 13  1  0  0  0  0
  3 14  1  0  0  0  0
  4 15  1  0  0  0  0
  4 16  1  0  0  0  0
  5 17  1  0  0  0  0
  5 18  1  0  0  0  0
  6 19  1  0  0  0  0
  7 20  1  0  0  0  0
  7 21  1  0  0  0  0
 10 22  1  0  0  0  0
 10 23  1  0  0  0  0
 11 24  1  0  0  0  0
M  END
> <FRED Chemgauss4 score>
-5.002297

$$$$
C85281249	P133458567
  -OEChem-05122015083D

 30 31  0     1  0  0  0  0  0999 V2000
   55.3999  158.3468   -2.9058 C   0  0  0  0  0  0  0  0  0  0  0  0
   55.3673  153.9709   -6.0375 C   0  0  0  0  0  0  0  0  0  0  0  0
   56.3903  154.7623   -6.9084 C   0  0  0  0  0  0  0  0  0  0  0  0
   55.0762  154.9628   -4.9224 C   0  0  2  0  0  0  0  0  0  0  0  0
   53.9991  155.6640   -4.0477 C   0  0  1  0  0  0  0  0  0  0  0  0
   54.4316  157.0022   -4.7632 C   0  0  2  0  0  0  0  0  0  0  0  0
   54.8308  156.1231   -5.9447 C   0  0  1  0  0  0  0  0  0  0  0  0
   57.7710  160.2333   -0.7948 C   0  0  0  0  0  0  0  0  0  0  0  0
   56.7052  158.9795   -2.4726 C   0  0  0  0  0  0  0  0  0  0  0  0
   52.6546  155.2475   -4.4447 N   0  0  0  0  0  0  0  0  0  0  0  0
   55.5393  157.7005   -4.1137 N   0  0  0  0  0  0  0  0  0  0  0  0
   54.3719  158.4219   -2.2382 O   0  0  0  0  0  0  0  0  0  0  0  0
   56.0109  156.1553   -6.7556 O   0  0  0  0  0  0  0  0  0  0  0  0
   56.5560  159.6280   -1.2275 O   0  0  0  0  0  0  0  0  0  0  0  0
   54.4671  153.7290   -6.6158 H   0  0  0  0  0  0  0  0  0  0  0  0
   55.7978  153.0333   -5.6742 H   0  0  0  0  0  0  0  0  0  0  0  0
   57.4099  154.6494   -6.5277 H   0  0  0  0  0  0  0  0  0  0  0  0
   56.3453  154.4727   -7.9615 H   0  0  0  0  0  0  0  0  0  0  0  0
   56.0280  155.0351   -4.3635 H   0  0  0  0  0  0  0  0  0  0  0  0
   54.1704  155.6292   -2.9680 H   0  0  0  0  0  0  0  0  0  0  0  0
   53.6141  157.7020   -4.9678 H   0  0  0  0  0  0  0  0  0  0  0  0
   53.9697  155.9995   -6.6212 H   0  0  0  0  0  0  0  0  0  0  0  0
   57.6121  160.7224    0.1693 H   0  0  0  0  0  0  0  0  0  0  0  0
   58.0990  160.9653   -1.5371 H   0  0  0  0  0  0  0  0  0  0  0  0
   58.5348  159.4596   -0.6868 H   0  0  0  0  0  0  0  0  0  0  0  0
   57.4670  158.2008   -2.3694 H   0  0  0  0  0  0  0  0  0  0  0  0
   57.0364  159.7069   -3.2203 H   0  0  0  0  0  0  0  0  0  0  0  0
   51.9247  155.9238   -4.4024 H   0  0  0  0  0  0  0  0  0  0  0  0
   52.4781  154.2722   -4.5434 H   0  0  0  0  0  0  0  0  0  0  0  0
   56.4396  157.7093   -4.5674 H   0  0  0  0  0  0  0  0  0  0  0  0
  1  9  1  0  0  0  0
  1 11  1  0  0  0  0
  1 12  2  0  0  0  0
  2  3  1  0  0  0  0
  2  4  1  0  0  0  0
  3 13  1  0  0  0  0
  4  5  1  0  0  0  0
  4  7  1  0  0  0  0
  5  6  1  0  0  0  0
  5 10  1  0  0  0  0
  6  7  1  0  0  0  0
  6 11  1  0  0  0  0
  7 13  1  0  0  0  0
  8 14  1  0  0  0  0
  9 14  1  0  0  0  0
  2 15  1  0  0  0  0
  2 16  1  0  0  0  0
  3 17  1  0  0  0  0
  3 18  1  0  0  0  0
  4 19  1  0  0  0  0
  5 20  1  0  0  0  0
  6 21  1  0  0  0  0
  7 22  1  0  0  0  0
  8 23  1  0  0  0  0
  8 24  1  0  0  0  0
  8 25  1  0  0  0  0
  9 26  1  0  0  0  0
  9 27  1  0  0  0  0
 10 28  1  0  0  0  0
 10 29  1  0  0  0  0
 11 30  1  0  0  0  0
M  END
> <FRED Chemgauss4 score>
-5.001650

$$$$
C85353299	P133560721
  -OEChem-05122015083D

 21 22  0     1  0  0  0  0  0999 V2000
   54.5531  154.8898   -6.1093 C   0  0  0  0  0  0  0  0  0  0  0  0
   54.6577  156.6182   -4.9436 C   0  0  0  0  0  0  0  0  0  0  0  0
   55.2091  157.6064   -2.6002 C   0  0  0  0  0  0  0  0  0  0  0  0
   54.7755  159.8625   -3.0061 C   0  0  0  0  0  0  0  0  0  0  0  0
   55.1021  157.8018   -4.1128 C   0  0  2  0  0  0  0  0  0  0  0  0
   54.2412  159.0677   -4.1903 C   0  0  1  0  0  0  0  0  0  0  0  0
   55.4426  155.7123   -5.4792 N   0  0  0  0  0  0  0  0  0  0  0  0
   53.3619  156.3383   -5.2473 N   0  0  0  0  0  0  0  0  0  0  0  0
   53.2673  155.2298   -5.9973 N   0  0  0  0  0  0  0  0  0  0  0  0
   52.8100  158.8052   -4.0162 N   0  0  0  0  0  0  0  0  0  0  0  0
   55.1844  158.9149   -2.0092 O   0  0  0  0  0  0  0  0  0  0  0  0
   54.8693  154.0168   -6.6650 H   0  0  0  0  0  0  0  0  0  0  0  0
   54.4096  156.9987   -2.1705 H   0  0  0  0  0  0  0  0  0  0  0  0
   56.1702  157.1539   -2.3390 H   0  0  0  0  0  0  0  0  0  0  0  0
   55.6267  160.4976   -3.2788 H   0  0  0  0  0  0  0  0  0  0  0  0
   54.0075  160.5028   -2.5528 H   0  0  0  0  0  0  0  0  0  0  0  0
   56.1554  158.0603   -4.5241 H   0  0  0  0  0  0  0  0  0  0  0  0
   54.4134  159.5752   -5.0841 H   0  0  0  0  0  0  0  0  0  0  0  0
   52.3812  154.8567   -6.3266 H   0  0  0  0  0  0  0  0  0  0  0  0
   52.4145  158.0033   -4.4651 H   0  0  0  0  0  0  0  0  0  0  0  0
   52.2359  159.5296   -3.6330 H   0  0  0  0  0  0  0  0  0  0  0  0
  1  7  2  0  0  0  0
  1  9  1  0  0  0  0
  2  5  1  0  0  0  0
  2  7  1  0  0  0  0
  2  8  2  0  0  0  0
  3  5  1  0  0  0  0
  3 11  1  0  0  0  0
  4  6  1  0  0  0  0
  4 11  1  0  0  0  0
  5  6  1  0  0  0  0
  6 10  1  0  0  0  0
  8  9  1  0  0  0  0
  1 12  1  0  0  0  0
  3 13  1  0  0  0  0
  3 14  1  0  0  0  0
  4 15  1  0  0  0  0
  4 16  1  0  0  0  0
  5 17  1  0  0  0  0
  6 18  1  0  0  0  0
  9 19  1  0  0  0  0
 10 20  1  0  0  0  0
 10 21  1  0  0  0  0
M  END
> <FRED Chemgauss4 score>
-5.001095

$$$$
C52815753	P79155819
  -OEChem-05122015083D

 20 20  0     0  0  0  0  0  0999 V2000
   56.6329  158.2666   -3.2031 C   0  0  0  0  0  0  0  0  0  0  0  0
   55.6932  157.4693   -3.8325 C   0  0  0  0  0  0  0  0  0  0  0  0
   56.2630  158.9010   -2.0343 C   0  0  0  0  0  0  0  0  0  0  0  0
   54.4460  157.3589   -3.2513 C   0  0  0  0  0  0  0  0  0  0  0  0
   53.4243  156.6770   -6.3318 C   0  0  0  0  0  0  0  0  0  0  0  0
   53.7490  155.8413   -5.1050 C   0  0  0  0  0  0  0  0  0  0  0  0
   55.0351  158.7751   -1.4880 N   0  0  0  0  0  0  0  0  0  0  0  0
   54.1117  157.9911   -2.1064 N   0  0  0  0  0  0  0  0  0  0  0  0
   52.0502  157.1014   -6.3512 N   0  0  0  0  0  0  0  0  0  0  0  0
   53.5028  156.5591   -3.8837 N   0  0  0  0  0  0  0  0  0  0  0  0
   57.6283  158.3883   -3.6144 H   0  0  0  0  0  0  0  0  0  0  0  0
   55.9430  156.9530   -4.7535 H   0  0  0  0  0  0  0  0  0  0  0  0
   56.9529  159.5388   -1.4939 H   0  0  0  0  0  0  0  0  0  0  0  0
   53.6072  156.1186   -7.2553 H   0  0  0  0  0  0  0  0  0  0  0  0
   54.0400  157.5817   -6.3439 H   0  0  0  0  0  0  0  0  0  0  0  0
   53.1235  154.9436   -5.0818 H   0  0  0  0  0  0  0  0  0  0  0  0
   54.7993  155.5326   -5.0993 H   0  0  0  0  0  0  0  0  0  0  0  0
   51.3341  156.4608   -6.0481 H   0  0  0  0  0  0  0  0  0  0  0  0
   51.8026  157.9409   -6.8502 H   0  0  0  0  0  0  0  0  0  0  0  0
   52.5848  156.4809   -3.4538 H   0  0  0  0  0  0  0  0  0  0  0  0
  1  2  1  0  0  0  0
  1  3  2  0  0  0  0
  2  4  2  0  0  0  0
  3  7  1  0  0  0  0
  4  8  1  0  0  0  0
  4 10  1  0  0  0  0
  5  6  1  0  0  0  0
  5  9  1  0  0  0  0
  6 10  1  0  0  0  0
  7  8  2  0  0  0  0
  1 11  1  0  0  0  0
  2 12  1  0  0  0  0
  3 13  1  0  0  0  0
  5 14  1  0  0  0  0
  5 15  1  0  0  0  0
  6 16  1  0  0  0  0
  6 17  1  0  0  0  0
  9 18  1  0  0  0  0
  9 19  1  0  0  0  0
 10 20  1  0  0  0  0
M  END
> <FRED Chemgauss4 score>
-4.999554

$$$$
C78676016	P122779583
  -OEChem-05122015083D

 24 24  0     1  0  0  0  0  0999 V2000
   55.4113  158.6457   -2.2695 C   0  0  0  0  0  0  0  0  0  0  0  0
   56.2307  158.0366   -3.1904 C   0  0  0  0  0  0  0  0  0  0  0  0
   54.3567  156.9114   -2.9101 C   0  0  0  0  0  0  0  0  0  0  0  0
   56.7783  155.5156   -6.9265 C   0  0  0  0  0  0  0  0  0  0  0  0
   53.3542  155.8430   -3.0988 C   0  0  0  0  0  0  0  0  0  0  0  0
   56.0039  155.9459   -4.5732 C   0  0  0  0  0  0  0  0  0  0  0  0
   56.3143  156.5735   -5.9351 C   0  0  2  0  0  0  0  0  0  0  0  0
   54.2465  157.9402   -2.0993 N   0  0  0  0  0  0  0  0  0  0  0  0
   55.5419  156.9268   -3.5916 N   0  0  0  0  0  0  0  0  0  0  0  0
   52.6206  155.9732   -4.3385 N   0  0  0  0  0  0  0  0  0  0  0  0
   55.1383  157.1743   -6.4731 O   0  0  0  0  0  0  0  0  0  0  0  0
   55.6010  159.5563   -1.7202 H   0  0  0  0  0  0  0  0  0  0  0  0
   57.2075  158.2881   -3.5794 H   0  0  0  0  0  0  0  0  0  0  0  0
   56.0350  154.7202   -7.0370 H   0  0  0  0  0  0  0  0  0  0  0  0
   56.9561  155.9650   -7.9096 H   0  0  0  0  0  0  0  0  0  0  0  0
   57.7272  155.0689   -6.6091 H   0  0  0  0  0  0  0  0  0  0  0  0
   53.8187  154.8412   -3.1064 H   0  0  0  0  0  0  0  0  0  0  0  0
   52.6052  155.8258   -2.2879 H   0  0  0  0  0  0  0  0  0  0  0  0
   55.2120  155.1916   -4.6563 H   0  0  0  0  0  0  0  0  0  0  0  0
   56.8899  155.4538   -4.1543 H   0  0  0  0  0  0  0  0  0  0  0  0
   57.0834  157.3498   -5.8528 H   0  0  0  0  0  0  0  0  0  0  0  0
   51.6948  155.5899   -4.3945 H   0  0  0  0  0  0  0  0  0  0  0  0
   53.1154  156.2543   -5.1652 H   0  0  0  0  0  0  0  0  0  0  0  0
   55.3923  157.5632   -7.3241 H   0  0  0  0  0  0  0  0  0  0  0  0
  1  2  2  0  0  0  0
  1  8  1  0  0  0  0
  2  9  1  0  0  0  0
  3  5  1  0  0  0  0
  3  8  2  0  0  0  0
  3  9  1  0  0  0  0
  4  7  1  0  0  0  0
  5 10  1  0  0  0  0
  6  7  1  0  0  0  0
  6  9  1  0  0  0  0
  7 11  1  0  0  0  0
  1 12  1  0  0  0  0
  2 13  1  0  0  0  0
  4 14  1  0  0  0  0
  4 15  1  0  0  0  0
  4 16  1  0  0  0  0
  5 17  1  0  0  0  0
  5 18  1  0  0  0  0
  6 19  1  0  0  0  0
  6 20  1  0  0  0  0
  7 21  1  0  0  0  0
 10 22  1  0  0  0  0
 10 23  1  0  0  0  0
 11 24  1  0  0  0  0
M  END
> <FRED Chemgauss4 score>
-4.999256

$$$$
C97666462	P154881391
  -OEChem-05122015083D

 45 46  0     1  0  0  0  0  0999 V2000
   54.1694  155.9925   -3.4506 C   0  0  0  0  0  0  0  0  0  0  0  0
   54.6693  155.7182   -4.7017 C   0  0  0  0  0  0  0  0  0  0  0  0
   55.1071  157.7912   -4.0954 C   0  0  0  0  0  0  0  0  0  0  0  0
   58.2709  161.2579   -2.1705 C   0  0  0  0  0  0  0  0  0  0  0  0
   58.0934  160.5060   -0.8497 C   0  0  0  0  0  0  0  0  0  0  0  0
   57.1917  160.9418   -3.2113 C   0  0  0  0  0  0  0  0  0  0  0  0
   56.0599  159.2421   -1.7006 C   0  0  0  0  0  0  0  0  0  0  0  0
   56.6297  160.1486   -0.5892 C   0  0  1  0  0  0  0  0  0  0  0  0
   56.6676  159.5063   -3.0937 C   0  0  1  0  0  0  0  0  0  0  0  0
   56.4551  159.4986    0.7823 C   0  0  0  0  0  0  0  0  0  0  0  0
   59.7767  158.0668   -4.4401 C   0  0  0  0  0  0  0  0  0  0  0  0
   55.9403  157.0886   -6.3623 C   0  0  0  0  0  0  0  0  0  0  0  0
   58.6372  159.0527   -4.2942 C   0  0  0  0  0  0  0  0  0  0  0  0
   55.6468  159.1998   -4.1911 C   0  0  2  0  0  0  0  0  0  0  0  0
   54.4450  157.2846   -3.0790 N   0  0  0  0  0  0  0  0  0  0  0  0
   55.2668  156.8801   -5.1022 N   0  0  0  0  0  0  0  0  0  0  0  0
   53.7072  159.9206   -5.2794 N   0  0  0  0  0  0  0  0  0  0  0  0
   54.5838  160.1756   -4.1762 N   0  0  0  0  0  0  0  0  0  0  0  0
   57.7663  158.6033   -3.2704 O   0  0  0  0  0  0  0  0  0  0  0  0
   53.6250  155.3253   -2.7984 H   0  0  0  0  0  0  0  0  0  0  0  0
   54.6514  154.8300   -5.3178 H   0  0  0  0  0  0  0  0  0  0  0  0
   58.2913  162.3449   -1.9741 H   0  0  0  0  0  0  0  0  0  0  0  0
   59.2625  161.0182   -2.5944 H   0  0  0  0  0  0  0  0  0  0  0  0
   58.7034  159.5939   -0.8756 H   0  0  0  0  0  0  0  0  0  0  0  0
   58.4826  161.1236   -0.0316 H   0  0  0  0  0  0  0  0  0  0  0  0
   56.3695  161.6579   -3.1209 H   0  0  0  0  0  0  0  0  0  0  0  0
   57.6088  161.0965   -4.2125 H   0  0  0  0  0  0  0  0  0  0  0  0
   56.2291  158.1872   -1.4343 H   0  0  0  0  0  0  0  0  0  0  0  0
   54.9663  159.3494   -1.7457 H   0  0  0  0  0  0  0  0  0  0  0  0
   56.0417  161.0880   -0.5768 H   0  0  0  0  0  0  0  0  0  0  0  0
   57.0164  158.5669    0.8221 H   0  0  0  0  0  0  0  0  0  0  0  0
   55.4018  159.2892    0.9588 H   0  0  0  0  0  0  0  0  0  0  0  0
   56.8211  160.1699    1.5569 H   0  0  0  0  0  0  0  0  0  0  0  0
   60.3447  157.9864   -3.5091 H   0  0  0  0  0  0  0  0  0  0  0  0
   59.3974  157.0756   -4.7096 H   0  0  0  0  0  0  0  0  0  0  0  0
   60.4548  158.3769   -5.2420 H   0  0  0  0  0  0  0  0  0  0  0  0
   55.2026  157.4507   -7.0832 H   0  0  0  0  0  0  0  0  0  0  0  0
   56.7392  157.8238   -6.2309 H   0  0  0  0  0  0  0  0  0  0  0  0
   56.3751  156.1439   -6.7003 H   0  0  0  0  0  0  0  0  0  0  0  0
   58.0731  159.1283   -5.2286 H   0  0  0  0  0  0  0  0  0  0  0  0
   59.0177  160.0422   -4.0241 H   0  0  0  0  0  0  0  0  0  0  0  0
   56.1518  159.3306   -5.1543 H   0  0  0  0  0  0  0  0  0  0  0  0
   53.7134  160.7239   -5.9073 H   0  0  0  0  0  0  0  0  0  0  0  0
   54.0698  159.1390   -5.8238 H   0  0  0  0  0  0  0  0  0  0  0  0
   54.0462  160.1003   -3.3081 H   0  0  0  0  0  0  0  0  0  0  0  0
  1  2  2  0  0  0  0
  1 15  1  0  0  0  0
  2 16  1  0  0  0  0
  3 14  1  0  0  0  0
  3 15  2  0  0  0  0
  3 16  1  0  0  0  0
  4  5  1  0  0  0  0
  4  6  1  0  0  0  0
  5  8  1  0  0  0  0
  6  9  1  0  0  0  0
  7  8  1  0  0  0  0
  7  9  1  0  0  0  0
  8 10  1  0  0  0  0
  9 14  1  0  0  0  0
  9 19  1  0  0  0  0
 11 13  1  0  0  0  0
 12 16  1  0  0  0  0
 13 19  1  0  0  0  0
 14 18  1  0  0  0  0
 17 18  1  0  0  0  0
  1 20  1  0  0  0  0
  2 21  1  0  0  0  0
  4 22  1  0  0  0  0
  4 23  1  0  0  0  0
  5 24  1  0  0  0  0
  5 25  1  0  0  0  0
  6 26  1  0  0  0  0
  6 27  1  0  0  0  0
  7 28  1  0  0  0  0
  7 29  1  0  0  0  0
  8 30  1  0  0  0  0
 10 31  1  0  0  0  0
 10 32  1  0  0  0  0
 10 33  1  0  0  0  0
 11 34  1  0  0  0  0
 11 35  1  0  0  0  0
 11 36  1  0  0  0  0
 12 37  1  0  0  0  0
 12 38  1  0  0  0  0
 12 39  1  0  0  0  0
 13 40  1  0  0  0  0
 13 41  1  0  0  0  0
 14 42  1  0  0  0  0
 17 43  1  0  0  0  0
 17 44  1  0  0  0  0
 18 45  1  0  0  0  0
M  END
> <FRED Chemgauss4 score>
-4.996180

$$$$
C85654775	P134095763
  -OEChem-05122015083D

 30 31  0     0  0  0  0  0  0999 V2000
   57.4093  158.7518   -2.9273 C   0  0  0  0  0  0  0  0  0  0  0  0
   55.1694  159.5926   -2.5913 C   0  0  0  0  0  0  0  0  0  0  0  0
   57.8427  160.0368   -3.2535 C   0  0  0  0  0  0  0  0  0  0  0  0
   55.6028  160.8776   -2.9174 C   0  0  0  0  0  0  0  0  0  0  0  0
   52.5967  156.2408   -3.7749 C   0  0  0  0  0  0  0  0  0  0  0  0
   56.0726  158.5296   -2.5963 C   0  0  0  0  0  0  0  0  0  0  0  0
   53.4353  155.9055   -4.8548 C   0  0  0  0  0  0  0  0  0  0  0  0
   56.9396  161.0997   -3.2485 C   0  0  0  0  0  0  0  0  0  0  0  0
   54.7001  156.2108   -4.4150 C   0  0  0  0  0  0  0  0  0  0  0  0
   56.1022  156.8792   -6.3832 C   0  0  0  0  0  0  0  0  0  0  0  0
   55.6091  157.1556   -2.2476 C   0  0  0  0  0  0  0  0  0  0  0  0
   56.0168  156.0922   -5.0710 C   0  0  0  0  0  0  0  0  0  0  0  0
   53.2719  156.7221   -2.7278 N   0  0  0  0  0  0  0  0  0  0  0  0
   54.5482  156.6914   -3.1476 N   0  0  0  0  0  0  0  0  0  0  0  0
   53.0769  155.3991   -6.0506 N   0  0  0  0  0  0  0  0  0  0  0  0
   57.5275  162.8404   -3.6911 Br  0  0  0  0  0  0  0  0  0  0  0  0
   58.1201  157.9296   -2.9336 H   0  0  0  0  0  0  0  0  0  0  0  0
   54.1258  159.4288   -2.3356 H   0  0  0  0  0  0  0  0  0  0  0  0
   58.8876  160.1925   -3.5100 H   0  0  0  0  0  0  0  0  0  0  0  0
   54.8866  161.6949   -2.9086 H   0  0  0  0  0  0  0  0  0  0  0  0
   51.5214  156.1557   -3.7037 H   0  0  0  0  0  0  0  0  0  0  0  0
   55.3136  156.5657   -7.0757 H   0  0  0  0  0  0  0  0  0  0  0  0
   57.0672  156.7254   -6.8763 H   0  0  0  0  0  0  0  0  0  0  0  0
   55.9818  157.9523   -6.2005 H   0  0  0  0  0  0  0  0  0  0  0  0
   56.4301  156.4225   -2.2941 H   0  0  0  0  0  0  0  0  0  0  0  0
   55.2189  157.1038   -1.2186 H   0  0  0  0  0  0  0  0  0  0  0  0
   56.8289  156.4394   -4.4030 H   0  0  0  0  0  0  0  0  0  0  0  0
   56.2638  155.0336   -5.2827 H   0  0  0  0  0  0  0  0  0  0  0  0
   52.0991  155.1568   -6.2758 H   0  0  0  0  0  0  0  0  0  0  0  0
   53.7710  155.1389   -6.7690 H   0  0  0  0  0  0  0  0  0  0  0  0
  1  3  2  0  0  0  0
  1  6  1  0  0  0  0
  2  4  1  0  0  0  0
  2  6  2  0  0  0  0
  3  8  1  0  0  0  0
  4  8  2  0  0  0  0
  5  7  1  0  0  0  0
  5 13  2  0  0  0  0
  6 11  1  0  0  0  0
  7  9  2  0  0  0  0
  7 15  1  0  0  0  0
  8 16  1  0  0  0  0
  9 12  1  0  0  0  0
  9 14  1  0  0  0  0
 10 12  1  0  0  0  0
 11 14  1  0  0  0  0
 13 14  1  0  0  0  0
  1 17  1  0  0  0  0
  2 18  1  0  0  0  0
  3 19  1  0  0  0  0
  4 20  1  0  0  0  0
  5 21  1  0  0  0  0
 10 22  1  0  0  0  0
 10 23  1  0  0  0  0
 10 24  1  0  0  0  0
 11 25  1  0  0  0  0
 11 26  1  0  0  0  0
 12 27  1  0  0  0  0
 12 28  1  0  0  0  0
 15 29  1  0  0  0  0
 15 30  1  0  0  0  0
M  END
> <FRED Chemgauss4 score>
-4.995277

$$$$
C22212436	P33050508
  -OEChem-05122015083D

 30 30  0     1  0  0  0  0  0999 V2000
   57.2017  155.8521   -6.4850 C   0  0  0  0  0  0  0  0  0  0  0  0
   55.0177  154.8594   -6.7096 C   0  0  0  0  0  0  0  0  0  0  0  0
   57.8198  154.4667   -6.6581 C   0  0  0  0  0  0  0  0  0  0  0  0
   55.6843  153.4864   -6.8707 C   0  0  1  0  0  0  0  0  0  0  0  0
   54.8619  152.5845   -7.7820 C   0  0  0  0  0  0  0  0  0  0  0  0
   55.8190  155.5279   -4.5096 C   0  0  0  0  0  0  0  0  0  0  0  0
   54.1488  157.3773   -3.9747 C   0  0  0  0  0  0  0  0  0  0  0  0
   54.4889  155.8920   -3.8482 C   0  0  2  0  0  0  0  0  0  0  0  0
   55.8371  155.8093   -5.9428 N   0  0  1  0  0  0  0  0  0  0  0  0
   53.6055  157.6501   -5.2871 N   0  0  0  0  0  0  0  0  0  0  0  0
   56.9774  153.6431   -7.4646 O   0  0  0  0  0  0  0  0  0  0  0  0
   54.5399  155.5505   -2.4630 O   0  0  0  0  0  0  0  0  0  0  0  0
   57.8556  156.4495   -5.8165 H   0  0  0  0  0  0  0  0  0  0  0  0
   57.2030  156.3750   -7.4661 H   0  0  0  0  0  0  0  0  0  0  0  0
   54.7935  155.2842   -7.7127 H   0  0  0  0  0  0  0  0  0  0  0  0
   54.0366  154.7251   -6.2079 H   0  0  0  0  0  0  0  0  0  0  0  0
   58.7861  154.5515   -7.1650 H   0  0  0  0  0  0  0  0  0  0  0  0
   57.9942  153.9780   -5.6918 H   0  0  0  0  0  0  0  0  0  0  0  0
   55.7963  152.9945   -5.8975 H   0  0  0  0  0  0  0  0  0  0  0  0
   54.7367  153.0536   -8.7583 H   0  0  0  0  0  0  0  0  0  0  0  0
   53.8780  152.4096   -7.3458 H   0  0  0  0  0  0  0  0  0  0  0  0
   55.3655  151.6261   -7.9128 H   0  0  0  0  0  0  0  0  0  0  0  0
   56.6449  156.0847   -4.0559 H   0  0  0  0  0  0  0  0  0  0  0  0
   56.0206  154.4574   -4.4012 H   0  0  0  0  0  0  0  0  0  0  0  0
   55.0396  157.9991   -3.8376 H   0  0  0  0  0  0  0  0  0  0  0  0
   53.4055  157.6652   -3.2242 H   0  0  0  0  0  0  0  0  0  0  0  0
   53.6935  155.2883   -4.3022 H   0  0  0  0  0  0  0  0  0  0  0  0
   53.9950  157.1734   -6.0797 H   0  0  0  0  0  0  0  0  0  0  0  0
   53.0038  158.4446   -5.4050 H   0  0  0  0  0  0  0  0  0  0  0  0
   53.6811  155.7977   -2.0883 H   0  0  0  0  0  0  0  0  0  0  0  0
  1  3  1  0  0  0  0
  1  9  1  0  0  0  0
  2  4  1  0  0  0  0
  2  9  1  0  0  0  0
  3 11  1  0  0  0  0
  4  5  1  0  0  0  0
  4 11  1  0  0  0  0
  6  8  1  0  0  0  0
  6  9  1  0  0  0  0
  7  8  1  0  0  0  0
  7 10  1  0  0  0  0
  8 12  1  0  0  0  0
  1 13  1  0  0  0  0
  1 14  1  0  0  0  0
  2 15  1  0  0  0  0
  2 16  1  0  0  0  0
  3 17  1  0  0  0  0
  3 18  1  0  0  0  0
  4 19  1  0  0  0  0
  5 20  1  0  0  0  0
  5 21  1  0  0  0  0
  5 22  1  0  0  0  0
  6 23  1  0  0  0  0
  6 24  1  0  0  0  0
  7 25  1  0  0  0  0
  7 26  1  0  0  0  0
  8 27  1  0  0  0  0
 10 28  1  0  0  0  0
 10 29  1  0  0  0  0
 12 30  1  0  0  0  0
M  END
> <FRED Chemgauss4 score>
-4.991689

$$$$
C83755710	P131045930
  -OEChem-05122015083D

 20 20  0     0  0  0  0  0  0999 V2000
   54.7307  155.5958   -6.2750 C   0  0  0  0  0  0  0  0  0  0  0  0
   54.5956  155.7955   -4.2016 C   0  0  0  0  0  0  0  0  0  0  0  0
   54.9655  151.9407   -8.5331 C   0  0  0  0  0  0  0  0  0  0  0  0
   54.4257  156.2794   -2.8344 C   0  0  0  0  0  0  0  0  0  0  0  0
   55.3294  153.1075   -6.5276 C   0  0  0  0  0  0  0  0  0  0  0  0
   54.4738  156.5115   -5.2952 N   0  0  0  0  0  0  0  0  0  0  0  0
   54.9107  154.5131   -4.5270 N   0  0  0  0  0  0  0  0  0  0  0  0
   55.0037  154.3582   -5.8565 N   0  0  0  0  0  0  0  0  0  0  0  0
   53.1700  155.8714   -2.2277 N   0  0  0  0  0  0  0  0  0  0  0  0
   54.6794  153.1184   -7.7912 O   0  0  0  0  0  0  0  0  0  0  0  0
   54.7136  155.8606   -7.3249 H   0  0  0  0  0  0  0  0  0  0  0  0
   54.4514  151.9820   -9.4964 H   0  0  0  0  0  0  0  0  0  0  0  0
   54.6355  151.0645   -7.9692 H   0  0  0  0  0  0  0  0  0  0  0  0
   56.0435  151.8790   -8.7003 H   0  0  0  0  0  0  0  0  0  0  0  0
   55.2258  155.9219   -2.1521 H   0  0  0  0  0  0  0  0  0  0  0  0
   54.4534  157.3870   -2.7593 H   0  0  0  0  0  0  0  0  0  0  0  0
   56.4172  153.0452   -6.6429 H   0  0  0  0  0  0  0  0  0  0  0  0
   54.9752  152.2754   -5.9088 H   0  0  0  0  0  0  0  0  0  0  0  0
   52.7752  156.4508   -1.5142 H   0  0  0  0  0  0  0  0  0  0  0  0
   52.8446  154.9389   -2.3877 H   0  0  0  0  0  0  0  0  0  0  0  0
  1  6  2  0  0  0  0
  1  8  1  0  0  0  0
  2  4  1  0  0  0  0
  2  6  1  0  0  0  0
  2  7  2  0  0  0  0
  3 10  1  0  0  0  0
  4  9  1  0  0  0  0
  5  8  1  0  0  0  0
  5 10  1  0  0  0  0
  7  8  1  0  0  0  0
  1 11  1  0  0  0  0
  3 12  1  0  0  0  0
  3 13  1  0  0  0  0
  3 14  1  0  0  0  0
  4 15  1  0  0  0  0
  4 16  1  0  0  0  0
  5 17  1  0  0  0  0
  5 18  1  0  0  0  0
  9 19  1  0  0  0  0
  9 20  1  0  0  0  0
M  END
> <FRED Chemgauss4 score>
-4.987916

$$$$
C42528606	P64324269
  -OEChem-05122015083D

 32 31  0     1  0  0  0  0  0999 V2000
   58.7990  156.5783   -6.4772 C   0  0  0  0  0  0  0  0  0  0  0  0
   54.6487  153.8650   -6.4836 C   0  0  0  0  0  0  0  0  0  0  0  0
   53.6645  156.1075   -7.0737 C   0  0  0  0  0  0  0  0  0  0  0  0
   57.5486  156.7638   -5.7259 C   0  0  0  0  0  0  0  0  0  0  0  0
   56.5306  155.6711   -6.0346 C   0  0  0  0  0  0  0  0  0  0  0  0
   54.5320  157.6203   -3.0006 C   0  0  0  0  0  0  0  0  0  0  0  0
   55.4273  155.4170   -3.9155 C   0  0  0  0  0  0  0  0  0  0  0  0
   54.1739  155.2107   -5.9549 C   0  0  0  0  0  0  0  0  0  0  0  0
   54.3886  156.0979   -3.0237 C   0  0  1  0  0  0  0  0  0  0  0  0
   59.7865  156.4338   -7.0691 N   0  0  0  0  0  0  0  0  0  0  0  0
   53.9620  158.2540   -4.1596 N   0  0  0  0  0  0  0  0  0  0  0  0
   55.2903  155.8824   -5.2781 N   0  0  2  0  0  0  0  0  0  0  0  0
   54.5187  155.5905   -1.6957 O   0  0  0  0  0  0  0  0  0  0  0  0
   55.4472  153.9956   -7.2213 H   0  0  0  0  0  0  0  0  0  0  0  0
   55.0305  153.2301   -5.6761 H   0  0  0  0  0  0  0  0  0  0  0  0
   53.8265  153.3250   -6.9658 H   0  0  0  0  0  0  0  0  0  0  0  0
   54.4464  156.2767   -7.8221 H   0  0  0  0  0  0  0  0  0  0  0  0
   53.3540  157.0816   -6.6817 H   0  0  0  0  0  0  0  0  0  0  0  0
   52.8080  155.6581   -7.5886 H   0  0  0  0  0  0  0  0  0  0  0  0
   57.1170  157.7361   -5.9906 H   0  0  0  0  0  0  0  0  0  0  0  0
   57.7646  156.7902   -4.6514 H   0  0  0  0  0  0  0  0  0  0  0  0
   56.2921  155.6838   -7.1031 H   0  0  0  0  0  0  0  0  0  0  0  0
   56.9361  154.6813   -5.7971 H   0  0  0  0  0  0  0  0  0  0  0  0
   54.0398  158.0446   -2.1199 H   0  0  0  0  0  0  0  0  0  0  0  0
   55.5887  157.9056   -2.9793 H   0  0  0  0  0  0  0  0  0  0  0  0
   55.2990  154.3297   -3.9112 H   0  0  0  0  0  0  0  0  0  0  0  0
   56.4399  155.6486   -3.5695 H   0  0  0  0  0  0  0  0  0  0  0  0
   53.3766  155.0558   -5.2198 H   0  0  0  0  0  0  0  0  0  0  0  0
   53.3790  155.8448   -3.3699 H   0  0  0  0  0  0  0  0  0  0  0  0
   54.3168  159.1498   -4.4535 H   0  0  0  0  0  0  0  0  0  0  0  0
   53.0958  157.9024   -4.5350 H   0  0  0  0  0  0  0  0  0  0  0  0
   53.8100  155.9987   -1.1760 H   0  0  0  0  0  0  0  0  0  0  0  0
  1  4  1  0  0  0  0
  1 10  3  0  0  0  0
  2  8  1  0  0  0  0
  3  8  1  0  0  0  0
  4  5  1  0  0  0  0
  5 12  1  0  0  0  0
  6  9  1  0  0  0  0
  6 11  1  0  0  0  0
  7  9  1  0  0  0  0
  7 12  1  0  0  0  0
  8 12  1  0  0  0  0
  9 13  1  0  0  0  0
  2 14  1  0  0  0  0
  2 15  1  0  0  0  0
  2 16  1  0  0  0  0
  3 17  1  0  0  0  0
  3 18  1  0  0  0  0
  3 19  1  0  0  0  0
  4 20  1  0  0  0  0
  4 21  1  0  0  0  0
  5 22  1  0  0  0  0
  5 23  1  0  0  0  0
  6 24  1  0  0  0  0
  6 25  1  0  0  0  0
  7 26  1  0  0  0  0
  7 27  1  0  0  0  0
  8 28  1  0  0  0  0
  9 29  1  0  0  0  0
 11 30  1  0  0  0  0
 11 31  1  0  0  0  0
 13 32  1  0  0  0  0
M  END
> <FRED Chemgauss4 score>
-4.982461

$$$$
C83572707	P130735775
  -OEChem-05122015083D

 24 24  0     1  0  0  0  0  0999 V2000
   53.6517  156.3719   -3.3314 C   0  0  0  0  0  0  0  0  0  0  0  0
   55.8085  156.6288   -3.6740 C   0  0  0  0  0  0  0  0  0  0  0  0
   54.7172  155.9397   -4.1437 C   0  0  0  0  0  0  0  0  0  0  0  0
   57.7618  156.2584   -6.9247 C   0  0  0  0  0  0  0  0  0  0  0  0
   56.4949  155.8480   -6.7990 C   0  0  0  0  0  0  0  0  0  0  0  0
   56.1306  158.3054   -1.8398 C   0  0  0  0  0  0  0  0  0  0  0  0
   56.0638  154.7109   -5.9156 C   0  0  0  0  0  0  0  0  0  0  0  0
   54.6731  154.9339   -5.2839 C   0  0  2  0  0  0  0  0  0  0  0  0
   54.0319  157.2661   -2.4150 N   0  0  0  0  0  0  0  0  0  0  0  0
   55.3484  157.4014   -2.6485 N   0  0  0  0  0  0  0  0  0  0  0  0
   53.7382  155.2982   -6.3368 N   0  0  0  0  0  0  0  0  0  0  0  0
   52.6136  156.0733   -3.3665 H   0  0  0  0  0  0  0  0  0  0  0  0
   56.8478  156.6341   -3.9737 H   0  0  0  0  0  0  0  0  0  0  0  0
   58.0285  157.0844   -7.5746 H   0  0  0  0  0  0  0  0  0  0  0  0
   58.5551  155.7688   -6.3707 H   0  0  0  0  0  0  0  0  0  0  0  0
   55.7207  156.3658   -7.3592 H   0  0  0  0  0  0  0  0  0  0  0  0
   56.1152  159.2872   -2.3203 H   0  0  0  0  0  0  0  0  0  0  0  0
   55.6983  158.3637   -0.8370 H   0  0  0  0  0  0  0  0  0  0  0  0
   57.1553  157.9303   -1.7668 H   0  0  0  0  0  0  0  0  0  0  0  0
   56.0880  153.7614   -6.4665 H   0  0  0  0  0  0  0  0  0  0  0  0
   56.8119  154.6115   -5.1177 H   0  0  0  0  0  0  0  0  0  0  0  0
   54.3255  153.9696   -4.8895 H   0  0  0  0  0  0  0  0  0  0  0  0
   52.8840  155.7489   -6.0785 H   0  0  0  0  0  0  0  0  0  0  0  0
   53.8763  154.9125   -7.2488 H   0  0  0  0  0  0  0  0  0  0  0  0
  1  3  1  0  0  0  0
  1  9  2  0  0  0  0
  2  3  2  0  0  0  0
  2 10  1  0  0  0  0
  3  8  1  0  0  0  0
  4  5  2  0  0  0  0
  5  7  1  0  0  0  0
  6 10  1  0  0  0  0
  7  8  1  0  0  0  0
  8 11  1  0  0  0  0
  9 10  1  0  0  0  0
  1 12  1  0  0  0  0
  2 13  1  0  0  0  0
  4 14  1  0  0  0  0
  4 15  1  0  0  0  0
  5 16  1  0  0  0  0
  6 17  1  0  0  0  0
  6 18  1  0  0  0  0
  6 19  1  0  0  0  0
  7 20  1  0  0  0  0
  7 21  1  0  0  0  0
  8 22  1  0  0  0  0
 11 23  1  0  0  0  0
 11 24  1  0  0  0  0
M  END
> <FRED Chemgauss4 score>
-4.978651

$$$$
C86781265	P135835082
  -OEChem-05122015083D

 20 20  0     0  0  0  0  0  0999 V2000
   55.1130  155.5709   -4.5301 C   0  0  0  0  0  0  0  0  0  0  0  0
   55.7555  155.4527   -6.6296 C   0  0  0  0  0  0  0  0  0  0  0  0
   55.2175  156.3244   -5.7146 C   0  0  0  0  0  0  0  0  0  0  0  0
   54.3130  158.5844   -5.0358 C   0  0  0  0  0  0  0  0  0  0  0  0
   56.4767  153.0560   -6.5107 C   0  0  0  0  0  0  0  0  0  0  0  0
   55.5494  154.3171   -4.6763 N   0  0  0  0  0  0  0  0  0  0  0  0
   55.9333  154.2759   -5.9636 N   0  0  0  0  0  0  0  0  0  0  0  0
   53.5671  160.8587   -4.9293 N   0  0  0  0  0  0  0  0  0  0  0  0
   54.8602  157.6733   -5.9444 N   0  0  0  0  0  0  0  0  0  0  0  0
   54.1048  159.8173   -5.6576 N   0  0  0  0  0  0  0  0  0  0  0  0
   54.0411  158.3665   -3.8570 O   0  0  0  0  0  0  0  0  0  0  0  0
   54.7381  155.8810   -3.5650 H   0  0  0  0  0  0  0  0  0  0  0  0
   56.0205  155.5658   -7.6724 H   0  0  0  0  0  0  0  0  0  0  0  0
   57.5595  153.0723   -6.3611 H   0  0  0  0  0  0  0  0  0  0  0  0
   56.0329  152.1978   -5.9985 H   0  0  0  0  0  0  0  0  0  0  0  0
   56.2377  152.9999   -7.5764 H   0  0  0  0  0  0  0  0  0  0  0  0
   52.9977  161.4061   -5.5732 H   0  0  0  0  0  0  0  0  0  0  0  0
   52.9172  160.4473   -4.2607 H   0  0  0  0  0  0  0  0  0  0  0  0
   55.0227  158.0200   -6.8866 H   0  0  0  0  0  0  0  0  0  0  0  0
   54.3372  159.9769   -6.6321 H   0  0  0  0  0  0  0  0  0  0  0  0
  1  3  1  0  0  0  0
  1  6  2  0  0  0  0
  2  3  2  0  0  0  0
  2  7  1  0  0  0  0
  3  9  1  0  0  0  0
  4  9  1  0  0  0  0
  4 10  1  0  0  0  0
  4 11  2  0  0  0  0
  5  7  1  0  0  0  0
  6  7  1  0  0  0  0
  8 10  1  0  0  0  0
  1 12  1  0  0  0  0
  2 13  1  0  0  0  0
  5 14  1  0  0  0  0
  5 15  1  0  0  0  0
  5 16  1  0  0  0  0
  8 17  1  0  0  0  0
  8 18  1  0  0  0  0
  9 19  1  0  0  0  0
 10 20  1  0  0  0  0
M  END
> <FRED Chemgauss4 score>
-4.978086

$$$$
C02508339	P22788107
  -OEChem-05122015083D

 21 22  0     1  0  0  0  0  0999 V2000
   56.3035  155.2812   -5.2919 C   0  0  0  0  0  0  0  0  0  0  0  0
   55.5729  156.5361   -5.7260 C   0  0  2  0  0  0  0  0  0  0  0  0
   55.4862  157.6229   -4.6369 C   0  0  2  0  0  0  0  0  0  0  0  0
   54.8927  157.0789   -3.3253 C   0  0  2  0  0  0  0  0  0  0  0  0
   53.7223  156.1225   -3.6037 C   0  0  1  0  0  0  0  0  0  0  0  0
   54.0838  155.1915   -4.7675 C   0  0  2  0  0  0  0  0  0  0  0  0
   55.3486  154.5612   -4.4935 O   0  0  0  0  0  0  0  0  0  0  0  0
   54.2504  156.0117   -5.9303 O   0  0  0  0  0  0  0  0  0  0  0  0
   54.6592  158.6684   -5.1537 O   0  0  0  0  0  0  0  0  0  0  0  0
   54.4754  158.1548   -2.4923 O   0  0  0  0  0  0  0  0  0  0  0  0
   53.4601  155.3613   -2.4305 O   0  0  0  0  0  0  0  0  0  0  0  0
   56.5442  154.6485   -6.1527 H   0  0  0  0  0  0  0  0  0  0  0  0
   57.2158  155.4720   -4.7205 H   0  0  0  0  0  0  0  0  0  0  0  0
   55.9497  156.9507   -6.6658 H   0  0  0  0  0  0  0  0  0  0  0  0
   56.4737  158.0580   -4.4477 H   0  0  0  0  0  0  0  0  0  0  0  0
   55.6753  156.5447   -2.7718 H   0  0  0  0  0  0  0  0  0  0  0  0
   52.8199  156.7006   -3.8361 H   0  0  0  0  0  0  0  0  0  0  0  0
   53.3221  154.4247   -4.9383 H   0  0  0  0  0  0  0  0  0  0  0  0
   55.0969  158.9897   -5.9557 H   0  0  0  0  0  0  0  0  0  0  0  0
   55.2646  158.6899   -2.3127 H   0  0  0  0  0  0  0  0  0  0  0  0
   52.7192  154.7711   -2.6413 H   0  0  0  0  0  0  0  0  0  0  0  0
  1  2  1  0  0  0  0
  1  7  1  0  0  0  0
  2  3  1  0  0  0  0
  2  8  1  0  0  0  0
  3  4  1  0  0  0  0
  3  9  1  0  0  0  0
  4  5  1  0  0  0  0
  4 10  1  0  0  0  0
  5  6  1  0  0  0  0
  5 11  1  0  0  0  0
  6  7  1  0  0  0  0
  6  8  1  0  0  0  0
  1 12  1  0  0  0  0
  1 13  1  0  0  0  0
  2 14  1  0  0  0  0
  3 15  1  0  0  0  0
  4 16  1  0  0  0  0
  5 17  1  0  0  0  0
  6 18  1  0  0  0  0
  9 19  1  0  0  0  0
 10 20  1  0  0  0  0
 11 21  1  0  0  0  0
M  END
> <FRED Chemgauss4 score>
-4.974227

$$$$
C39088366	P59222491
  -OEChem-05122015083D

 22 22  0     1  0  0  0  0  0999 V2000
   55.7455  156.7828   -3.7053 C   0  0  0  0  0  0  0  0  0  0  0  0
   54.0399  156.9727   -6.0537 C   0  0  0  0  0  0  0  0  0  0  0  0
   55.5188  156.6180   -6.2128 C   0  0  2  0  0  0  0  0  0  0  0  0
   56.0913  155.9781   -4.9541 C   0  0  2  0  0  0  0  0  0  0  0  0
   54.2548  157.1442   -3.6144 C   0  0  2  0  0  0  0  0  0  0  0  0
   53.3785  155.9615   -3.1918 C   0  0  0  0  0  0  0  0  0  0  0  0
   53.7813  157.7710   -4.8536 N   0  0  0  0  0  0  0  0  0  0  0  0
   56.2459  157.8004   -6.5361 O   0  0  0  0  0  0  0  0  0  0  0  0
   53.8128  155.5124   -1.9219 O   0  0  0  0  0  0  0  0  0  0  0  0
   55.5776  154.7241   -4.8312 F   0  0  0  0  0  0  0  0  0  0  0  0
   56.0582  156.2114   -2.8119 H   0  0  0  0  0  0  0  0  0  0  0  0
   56.3625  157.6983   -3.6855 H   0  0  0  0  0  0  0  0  0  0  0  0
   53.6726  157.4990   -6.9478 H   0  0  0  0  0  0  0  0  0  0  0  0
   53.4521  156.0456   -6.0021 H   0  0  0  0  0  0  0  0  0  0  0  0
   55.6444  155.9225   -7.0710 H   0  0  0  0  0  0  0  0  0  0  0  0
   57.1848  155.8597   -5.0470 H   0  0  0  0  0  0  0  0  0  0  0  0
   54.1544  157.9235   -2.7885 H   0  0  0  0  0  0  0  0  0  0  0  0
   53.4758  155.1521   -3.9143 H   0  0  0  0  0  0  0  0  0  0  0  0
   52.3376  156.2762   -3.1275 H   0  0  0  0  0  0  0  0  0  0  0  0
   54.2257  158.6922   -4.9628 H   0  0  0  0  0  0  0  0  0  0  0  0
   57.1748  157.5372   -6.6288 H   0  0  0  0  0  0  0  0  0  0  0  0
   53.2443  154.7632   -1.6736 H   0  0  0  0  0  0  0  0  0  0  0  0
  1  4  1  0  0  0  0
  1  5  1  0  0  0  0
  2  3  1  0  0  0  0
  2  7  1  0  0  0  0
  3  4  1  0  0  0  0
  3  8  1  0  0  0  0
  4 10  1  0  0  0  0
  5  6  1  0  0  0  0
  5  7  1  0  0  0  0
  6  9  1  0  0  0  0
  1 11  1  0  0  0  0
  1 12  1  0  0  0  0
  2 13  1  0  0  0  0
  2 14  1  0  0  0  0
  3 15  1  0  0  0  0
  4 16  1  0  0  0  0
  5 17  1  0  0  0  0
  6 18  1  0  0  0  0
  6 19  1  0  0  0  0
  7 20  1  0  0  0  0
  8 21  1  0  0  0  0
  9 22  1  0  0  0  0
M  END
> <FRED Chemgauss4 score>
-4.973799

$$$$
C08681527	P57121907
  -OEChem-05122015083D

 21 22  0     1  0  0  0  0  0999 V2000
   54.7868  158.3205   -4.5668 C   0  0  0  0  0  0  0  0  0  0  0  0
   55.5486  157.2252   -3.8420 C   0  0  1  0  0  0  0  0  0  0  0  0
   54.8057  156.6204   -2.6390 C   0  0  2  0  0  0  0  0  0  0  0  0
   53.3943  156.1394   -3.0122 C   0  0  1  0  0  0  0  0  0  0  0  0
   53.3954  155.4576   -4.3880 C   0  0  2  0  0  0  0  0  0  0  0  0
   54.2659  156.2516   -5.3684 C   0  0  1  0  0  0  0  0  0  0  0  0
   53.8274  157.6217   -5.3757 O   0  0  0  0  0  0  0  0  0  0  0  0
   55.6090  156.2223   -4.8633 O   0  0  0  0  0  0  0  0  0  0  0  0
   54.7274  157.5889   -1.5989 O   0  0  0  0  0  0  0  0  0  0  0  0
   52.9461  155.2173   -2.0196 O   0  0  0  0  0  0  0  0  0  0  0  0
   52.0573  155.3839   -4.8662 O   0  0  0  0  0  0  0  0  0  0  0  0
   54.2855  159.0335   -3.9072 H   0  0  0  0  0  0  0  0  0  0  0  0
   55.4439  158.8680   -5.2510 H   0  0  0  0  0  0  0  0  0  0  0  0
   56.5519  157.5551   -3.5547 H   0  0  0  0  0  0  0  0  0  0  0  0
   55.3861  155.7723   -2.2538 H   0  0  0  0  0  0  0  0  0  0  0  0
   52.6856  156.9767   -2.9889 H   0  0  0  0  0  0  0  0  0  0  0  0
   53.7710  154.4318   -4.2893 H   0  0  0  0  0  0  0  0  0  0  0  0
   54.2233  155.8482   -6.3844 H   0  0  0  0  0  0  0  0  0  0  0  0
   55.6403  157.8181   -1.3632 H   0  0  0  0  0  0  0  0  0  0  0  0
   53.5796  154.4837   -2.0207 H   0  0  0  0  0  0  0  0  0  0  0  0
   52.0949  154.9497   -5.7332 H   0  0  0  0  0  0  0  0  0  0  0  0
  1  2  1  0  0  0  0
  1  7  1  0  0  0  0
  2  3  1  0  0  0  0
  2  8  1  0  0  0  0
  3  4  1  0  0  0  0
  3  9  1  0  0  0  0
  4  5  1  0  0  0  0
  4 10  1  0  0  0  0
  5  6  1  0  0  0  0
  5 11  1  0  0  0  0
  6  7  1  0  0  0  0
  6  8  1  0  0  0  0
  1 12  1  0  0  0  0
  1 13  1  0  0  0  0
  2 14  1  0  0  0  0
  3 15  1  0  0  0  0
  4 16  1  0  0  0  0
  5 17  1  0  0  0  0
  6 18  1  0  0  0  0
  9 19  1  0  0  0  0
 10 20  1  0  0  0  0
 11 21  1  0  0  0  0
M  END
> <FRED Chemgauss4 score>
-4.972502

$$$$
C98178888	P156130704
  -OEChem-05122015083D

 17 18  0     1  0  0  0  0  0999 V2000
   54.2859  154.6971   -6.3246 C   0  0  0  0  0  0  0  0  0  0  0  0
   53.6772  156.2130   -3.1341 C   0  0  0  0  0  0  0  0  0  0  0  0
   56.1753  156.8928   -4.2967 C   0  0  0  0  0  0  0  0  0  0  0  0
   53.9530  156.0606   -4.6005 C   0  0  1  0  0  0  0  0  0  0  0  0
   55.4335  155.6845   -4.7047 C   0  0  1  0  0  0  0  0  0  0  0  0
   54.5325  156.9564   -2.4727 N   0  0  0  0  0  0  0  0  0  0  0  0
   53.3461  155.0605   -5.4643 N   0  0  0  0  0  0  0  0  0  0  0  0
   55.6495  157.4369   -3.1246 N   0  0  0  0  0  0  0  0  0  0  0  0
   55.5044  155.1351   -6.0449 N   0  3  0  0  0  0  0  0  0  0  0  0
   52.6495  155.6749   -2.6756 O   0  5  0  0  0  0  0  0  0  0  0  0
   57.1637  157.3158   -4.8854 O   0  0  0  0  0  0  0  0  0  0  0  0
   54.0748  154.0907   -7.1869 H   0  0  0  0  0  0  0  0  0  0  0  0
   53.7506  157.0365   -5.0698 H   0  0  0  0  0  0  0  0  0  0  0  0
   55.7034  154.8757   -4.0104 H   0  0  0  0  0  0  0  0  0  0  0  0
   52.3817  154.7698   -5.5734 H   0  0  0  0  0  0  0  0  0  0  0  0
   56.1150  158.2060   -2.6537 H   0  0  0  0  0  0  0  0  0  0  0  0
   56.2957  154.9286   -6.6430 H   0  0  0  0  0  0  0  0  0  0  0  0
  1  7  1  0  0  0  0
  1  9  2  0  0  0  0
  2  4  1  0  0  0  0
  2  6  2  0  0  0  0
  2 10  1  0  0  0  0
  3  5  1  0  0  0  0
  3  8  1  0  0  0  0
  3 11  2  0  0  0  0
  4  5  1  0  0  0  0
  4  7  1  0  0  0  0
  5  9  1  0  0  0  0
  6  8  1  0  0  0  0
  1 12  1  0  0  0  0
  4 13  1  0  0  0  0
  5 14  1  0  0  0  0
  7 15  1  0  0  0  0
  8 16  1  0  0  0  0
  9 17  1  0  0  0  0
M  CHG  2   9   1  10  -1
M  END
> <FRED Chemgauss4 score>
-4.970119

$$$$
C36853404	P120837088
  -OEChem-05122015083D

 17 17  0     1  0  0  0  0  0999 V2000
   53.9080  156.1232   -3.6155 C   0  0  0  0  0  0  0  0  0  0  0  0
   53.7905  156.4683   -5.8911 C   0  0  0  0  0  0  0  0  0  0  0  0
   55.2209  155.6207   -4.1488 C   0  0  0  0  0  0  0  0  0  0  0  0
   55.1659  155.9052   -5.6454 C   0  0  2  0  0  0  0  0  0  0  0  0
   57.4404  156.3000   -6.3030 C   0  0  0  0  0  0  0  0  0  0  0  0
   53.1534  156.5515   -4.6778 N   0  0  0  0  0  0  0  0  0  0  0  0
   56.1401  156.9074   -6.0519 N   0  0  0  0  0  0  0  0  0  0  0  0
   53.5885  156.1243   -2.4358 O   0  0  0  0  0  0  0  0  0  0  0  0
   53.3451  156.8052   -6.9786 O   0  0  0  0  0  0  0  0  0  0  0  0
   56.0456  156.1294   -3.6394 H   0  0  0  0  0  0  0  0  0  0  0  0
   55.2983  154.5455   -3.9572 H   0  0  0  0  0  0  0  0  0  0  0  0
   55.2967  154.9849   -6.2238 H   0  0  0  0  0  0  0  0  0  0  0  0
   57.3579  155.5488   -7.0928 H   0  0  0  0  0  0  0  0  0  0  0  0
   57.8136  155.8173   -5.3957 H   0  0  0  0  0  0  0  0  0  0  0  0
   58.1594  157.0620   -6.6157 H   0  0  0  0  0  0  0  0  0  0  0  0
   52.2064  156.8995   -4.5758 H   0  0  0  0  0  0  0  0  0  0  0  0
   56.2332  157.6051   -5.3136 H   0  0  0  0  0  0  0  0  0  0  0  0
  1  3  1  0  0  0  0
  1  6  1  0  0  0  0
  1  8  2  0  0  0  0
  2  4  1  0  0  0  0
  2  6  1  0  0  0  0
  2  9  2  0  0  0  0
  3  4  1  0  0  0  0
  4  7  1  0  0  0  0
  5  7  1  0  0  0  0
  3 10  1  0  0  0  0
  3 11  1  0  0  0  0
  4 12  1  0  0  0  0
  5 13  1  0  0  0  0
  5 14  1  0  0  0  0
  5 15  1  0  0  0  0
  6 16  1  0  0  0  0
  7 17  1  0  0  0  0
M  END
> <FRED Chemgauss4 score>
-4.967353

$$$$
C54154432	P81466114
  -OEChem-05122015083D

 38 38  0     1  0  0  0  0  0999 V2000
   54.6387  155.9442   -4.0306 C   0  0  0  0  0  0  0  0  0  0  0  0
   57.7395  161.5165   -5.0040 C   0  0  0  0  0  0  0  0  0  0  0  0
   58.6293  161.9411   -3.8373 C   0  0  0  0  0  0  0  0  0  0  0  0
   56.2902  161.3439   -4.5645 C   0  0  0  0  0  0  0  0  0  0  0  0
   57.0071  160.8362   -2.2491 C   0  0  0  0  0  0  0  0  0  0  0  0
   58.4843  161.0108   -2.6240 C   0  0  1  0  0  0  0  0  0  0  0  0
   59.1640  159.6587   -2.8602 C   0  0  0  0  0  0  0  0  0  0  0  0
   55.3738  155.8929   -6.4291 C   0  0  0  0  0  0  0  0  0  0  0  0
   55.2587  158.0943   -5.1713 C   0  0  0  0  0  0  0  0  0  0  0  0
   54.6398  156.7028   -5.3556 C   0  0  2  0  0  0  0  0  0  0  0  0
   56.2220  160.3743   -3.4332 N   0  0  1  0  0  0  0  0  0  0  0  0
   55.8605  155.7025   -3.4621 N   0  0  0  0  0  0  0  0  0  0  0  0
   54.2713  159.0159   -4.5768 N   0  0  0  0  0  0  0  0  0  0  0  0
   53.7633  160.8936   -2.9016 O   0  0  0  0  0  0  0  0  0  0  0  0
   54.7766  158.7490   -2.0540 O   0  0  0  0  0  0  0  0  0  0  0  0
   53.2207  155.4311   -3.3032 S   0  0  0  0  0  0  0  0  0  0  0  0
   54.6587  159.7657   -3.0825 S   0  0  0  0  0  0  0  0  0  0  0  0
   57.7956  162.2751   -5.7953 H   0  0  0  0  0  0  0  0  0  0  0  0
   58.1117  160.5780   -5.4303 H   0  0  0  0  0  0  0  0  0  0  0  0
   59.6811  161.9607   -4.1719 H   0  0  0  0  0  0  0  0  0  0  0  0
   58.3815  162.9763   -3.5488 H   0  0  0  0  0  0  0  0  0  0  0  0
   55.8993  162.3141   -4.2379 H   0  0  0  0  0  0  0  0  0  0  0  0
   55.6726  160.9850   -5.3964 H   0  0  0  0  0  0  0  0  0  0  0  0
   56.8903  160.1134   -1.4287 H   0  0  0  0  0  0  0  0  0  0  0  0
   56.6048  161.8003   -1.9076 H   0  0  0  0  0  0  0  0  0  0  0  0
   58.9959  161.4970   -1.7668 H   0  0  0  0  0  0  0  0  0  0  0  0
   58.6896  159.1478   -3.6966 H   0  0  0  0  0  0  0  0  0  0  0  0
   59.0758  159.0401   -1.9684 H   0  0  0  0  0  0  0  0  0  0  0  0
   60.2184  159.8098   -3.0865 H   0  0  0  0  0  0  0  0  0  0  0  0
   56.4213  155.7345   -6.1529 H   0  0  0  0  0  0  0  0  0  0  0  0
   54.9154  154.9100   -6.5820 H   0  0  0  0  0  0  0  0  0  0  0  0
   55.3571  156.4176   -7.3906 H   0  0  0  0  0  0  0  0  0  0  0  0
   56.1266  158.0495   -4.5039 H   0  0  0  0  0  0  0  0  0  0  0  0
   55.5954  158.5153   -6.1248 H   0  0  0  0  0  0  0  0  0  0  0  0
   53.6013  156.8247   -5.6931 H   0  0  0  0  0  0  0  0  0  0  0  0
   56.7306  156.0053   -3.8870 H   0  0  0  0  0  0  0  0  0  0  0  0
   55.9366  155.2038   -2.5818 H   0  0  0  0  0  0  0  0  0  0  0  0
   53.7948  159.6081   -5.2696 H   0  0  0  0  0  0  0  0  0  0  0  0
  1 10  1  0  0  0  0
  1 12  1  0  0  0  0
  1 16  2  0  0  0  0
  2  3  1  0  0  0  0
  2  4  1  0  0  0  0
  3  6  1  0  0  0  0
  4 11  1  0  0  0  0
  5  6  1  0  0  0  0
  5 11  1  0  0  0  0
  6  7  1  0  0  0  0
  8 10  1  0  0  0  0
  9 10  1  0  0  0  0
  9 13  1  0  0  0  0
 11 17  1  0  0  0  0
 13 17  1  0  0  0  0
 14 17  2  0  0  0  0
 15 17  2  0  0  0  0
  2 18  1  0  0  0  0
  2 19  1  0  0  0  0
  3 20  1  0  0  0  0
  3 21  1  0  0  0  0
  4 22  1  0  0  0  0
  4 23  1  0  0  0  0
  5 24  1  0  0  0  0
  5 25  1  0  0  0  0
  6 26  1  0  0  0  0
  7 27  1  0  0  0  0
  7 28  1  0  0  0  0
  7 29  1  0  0  0  0
  8 30  1  0  0  0  0
  8 31  1  0  0  0  0
  8 32  1  0  0  0  0
  9 33  1  0  0  0  0
  9 34  1  0  0  0  0
 10 35  1  0  0  0  0
 12 36  1  0  0  0  0
 12 37  1  0  0  0  0
 13 38  1  0  0  0  0
M  END
> <FRED Chemgauss4 score>
-4.967004

$$$$
C80996774	P126495927
  -OEChem-05122015083D

 47 48  0     1  0  0  0  0  0999 V2000
   54.2960  157.8203   -4.0863 C   0  0  0  0  0  0  0  0  0  0  0  0
   54.6600  162.4477   -3.1939 C   0  0  0  0  0  0  0  0  0  0  0  0
   55.5566  161.2469   -2.9071 C   0  0  0  0  0  0  0  0  0  0  0  0
   55.5962  154.6543   -5.1102 C   0  0  0  0  0  0  0  0  0  0  0  0
   53.5567  162.2717   -4.2345 C   0  0  0  0  0  0  0  0  0  0  0  0
   54.8431  159.8989   -2.8577 C   0  0  0  0  0  0  0  0  0  0  0  0
   56.4298  155.0000   -6.3448 C   0  0  0  0  0  0  0  0  0  0  0  0
   54.3506  155.5306   -5.0209 C   0  0  0  0  0  0  0  0  0  0  0  0
   55.4570  157.3321   -6.2972 C   0  0  0  0  0  0  0  0  0  0  0  0
   53.9079  161.3783   -5.4119 C   0  0  0  0  0  0  0  0  0  0  0  0
   54.6988  159.2542   -4.2350 C   0  0  2  0  0  0  0  0  0  0  0  0
   56.7420  156.5025   -6.4422 C   0  0  1  0  0  0  0  0  0  0  0  0
   57.7944  156.9299   -5.4149 C   0  0  0  0  0  0  0  0  0  0  0  0
   58.3728  158.2094   -5.7891 N   0  5  0  0  0  0  0  0  0  0  0  0
   54.7026  156.9491   -5.0963 N   0  0  0  0  0  0  0  0  0  0  0  0
   60.2602  157.7475   -4.1366 N   0  0  0  0  0  0  0  0  0  0  0  0
   53.6654  159.9451   -5.0624 N   0  3  0  0  0  0  0  0  0  0  0  0
   53.6399  157.4780   -3.0992 O   0  0  0  0  0  0  0  0  0  0  0  0
   59.8479  160.1254   -4.8851 O   0  0  0  0  0  0  0  0  0  0  0  0
   58.2421  159.0499   -3.3530 O   0  0  0  0  0  0  0  0  0  0  0  0
   59.0669  158.9369   -4.5530 S   0  0  0  0  0  0  0  0  0  0  0  0
   54.1787  162.7534   -2.2449 H   0  0  0  0  0  0  0  0  0  0  0  0
   55.2884  163.3136   -3.4809 H   0  0  0  0  0  0  0  0  0  0  0  0
   56.3028  161.1979   -3.7247 H   0  0  0  0  0  0  0  0  0  0  0  0
   56.1540  161.4150   -1.9889 H   0  0  0  0  0  0  0  0  0  0  0  0
   55.2980  153.5997   -5.1622 H   0  0  0  0  0  0  0  0  0  0  0  0
   56.2029  154.7754   -4.2060 H   0  0  0  0  0  0  0  0  0  0  0  0
   52.6512  161.8955   -3.7382 H   0  0  0  0  0  0  0  0  0  0  0  0
   53.2960  163.2666   -4.6206 H   0  0  0  0  0  0  0  0  0  0  0  0
   55.3868  159.2234   -2.2098 H   0  0  0  0  0  0  0  0  0  0  0  0
   53.8611  160.0432   -2.4238 H   0  0  0  0  0  0  0  0  0  0  0  0
   57.3708  154.4237   -6.3175 H   0  0  0  0  0  0  0  0  0  0  0  0
   55.8943  154.6683   -7.2499 H   0  0  0  0  0  0  0  0  0  0  0  0
   53.6501  155.2585   -5.8173 H   0  0  0  0  0  0  0  0  0  0  0  0
   53.8365  155.3709   -4.0651 H   0  0  0  0  0  0  0  0  0  0  0  0
   55.6951  158.4013   -6.1968 H   0  0  0  0  0  0  0  0  0  0  0  0
   54.8511  157.2312   -7.2035 H   0  0  0  0  0  0  0  0  0  0  0  0
   53.2398  161.5972   -6.2524 H   0  0  0  0  0  0  0  0  0  0  0  0
   54.9432  161.4885   -5.7528 H   0  0  0  0  0  0  0  0  0  0  0  0
   55.6281  159.2910   -4.7759 H   0  0  0  0  0  0  0  0  0  0  0  0
   57.1567  156.6953   -7.4501 H   0  0  0  0  0  0  0  0  0  0  0  0
   58.5606  156.1508   -5.3561 H   0  0  0  0  0  0  0  0  0  0  0  0
   57.3191  156.9830   -4.4306 H   0  0  0  0  0  0  0  0  0  0  0  0
   61.2394  158.0163   -4.2977 H   0  0  0  0  0  0  0  0  0  0  0  0
   60.1265  157.2719   -3.2349 H   0  0  0  0  0  0  0  0  0  0  0  0
   52.7374  159.8528   -4.6194 H   0  0  0  0  0  0  0  0  0  0  0  0
   53.5760  159.4182   -5.9455 H   0  0  0  0  0  0  0  0  0  0  0  0
  1 11  1  0  0  0  0
  1 15  1  0  0  0  0
  1 18  2  0  0  0  0
  2  3  1  0  0  0  0
  2  5  1  0  0  0  0
  3  6  1  0  0  0  0
  4  7  1  0  0  0  0
  4  8  1  0  0  0  0
  5 10  1  0  0  0  0
  6 11  1  0  0  0  0
  7 12  1  0  0  0  0
  8 15  1  0  0  0  0
  9 12  1  0  0  0  0
  9 15  1  0  0  0  0
 10 17  1  0  0  0  0
 11 17  1  0  0  0  0
 12 13  1  0  0  0  0
 13 14  1  0  0  0  0
 14 21  1  0  0  0  0
 16 21  1  0  0  0  0
 19 21  2  0  0  0  0
 20 21  2  0  0  0  0
  2 22  1  0  0  0  0
  2 23  1  0  0  0  0
  3 24  1  0  0  0  0
  3 25  1  0  0  0  0
  4 26  1  0  0  0  0
  4 27  1  0  0  0  0
  5 28  1  0  0  0  0
  5 29  1  0  0  0  0
  6 30  1  0  0  0  0
  6 31  1  0  0  0  0
  7 32  1  0  0  0  0
  7 33  1  0  0  0  0
  8 34  1  0  0  0  0
  8 35  1  0  0  0  0
  9 36  1  0  0  0  0
  9 37  1  0  0  0  0
 10 38  1  0  0  0  0
 10 39  1  0  0  0  0
 11 40  1  0  0  0  0
 12 41  1  0  0  0  0
 13 42  1  0  0  0  0
 13 43  1  0  0  0  0
 16 44  1  0  0  0  0
 16 45  1  0  0  0  0
 17 46  1  0  0  0  0
 17 47  1  0  0  0  0
M  CHG  2  14  -1  17   1
M  END
> <FRED Chemgauss4 score>
-4.963496

$$$$
C19834702	P29491605
  -OEChem-05122015083D

 31 30  0     1  0  0  0  0  0999 V2000
   58.3794  155.6658   -6.7480 C   0  0  0  0  0  0  0  0  0  0  0  0
   60.4271  154.7445   -7.8616 C   0  0  0  0  0  0  0  0  0  0  0  0
   58.7852  153.1983   -6.8675 C   0  0  0  0  0  0  0  0  0  0  0  0
   55.6208  157.0173   -6.8602 C   0  0  0  0  0  0  0  0  0  0  0  0
   57.0964  155.3215   -6.0122 C   0  0  0  0  0  0  0  0  0  0  0  0
   54.3446  155.3117   -4.8946 C   0  0  0  0  0  0  0  0  0  0  0  0
   53.3840  155.0562   -3.7351 C   0  0  0  0  0  0  0  0  0  0  0  0
   55.4508  156.3131   -4.5695 C   0  0  0  0  0  0  0  0  0  0  0  0
   52.7304  156.2548   -3.2857 N   0  0  0  0  0  0  0  0  0  0  0  0
   59.1659  154.5780   -7.1433 N   0  0  0  0  0  0  0  0  0  0  0  0
   56.3745  156.5209   -5.6970 N   0  0  2  0  0  0  0  0  0  0  0  0
   58.6833  156.8406   -6.9714 O   0  0  0  0  0  0  0  0  0  0  0  0
   61.2551  154.8269   -7.1529 H   0  0  0  0  0  0  0  0  0  0  0  0
   60.3966  155.6498   -8.4740 H   0  0  0  0  0  0  0  0  0  0  0  0
   60.6065  153.8858   -8.5142 H   0  0  0  0  0  0  0  0  0  0  0  0
   58.1834  152.8031   -7.6899 H   0  0  0  0  0  0  0  0  0  0  0  0
   58.1998  153.1448   -5.9456 H   0  0  0  0  0  0  0  0  0  0  0  0
   59.6768  152.5759   -6.7531 H   0  0  0  0  0  0  0  0  0  0  0  0
   55.0801  157.9299   -6.5960 H   0  0  0  0  0  0  0  0  0  0  0  0
   54.9003  156.2652   -7.1927 H   0  0  0  0  0  0  0  0  0  0  0  0
   56.3025  157.2387   -7.6858 H   0  0  0  0  0  0  0  0  0  0  0  0
   56.4515  154.7034   -6.6421 H   0  0  0  0  0  0  0  0  0  0  0  0
   57.3216  154.8154   -5.0699 H   0  0  0  0  0  0  0  0  0  0  0  0
   53.7672  155.6756   -5.7533 H   0  0  0  0  0  0  0  0  0  0  0  0
   54.8082  154.3645   -5.1965 H   0  0  0  0  0  0  0  0  0  0  0  0
   52.6082  154.3345   -4.0087 H   0  0  0  0  0  0  0  0  0  0  0  0
   53.9332  154.6535   -2.8782 H   0  0  0  0  0  0  0  0  0  0  0  0
   56.0510  155.9458   -3.7310 H   0  0  0  0  0  0  0  0  0  0  0  0
   55.0398  157.2879   -4.2897 H   0  0  0  0  0  0  0  0  0  0  0  0
   52.4131  156.3138   -2.3308 H   0  0  0  0  0  0  0  0  0  0  0  0
   52.4172  156.9292   -3.9663 H   0  0  0  0  0  0  0  0  0  0  0  0
  1  5  1  0  0  0  0
  1 10  1  0  0  0  0
  1 12  2  0  0  0  0
  2 10  1  0  0  0  0
  3 10  1  0  0  0  0
  4 11  1  0  0  0  0
  5 11  1  0  0  0  0
  6  7  1  0  0  0  0
  6  8  1  0  0  0  0
  7  9  1  0  0  0  0
  8 11  1  0  0  0  0
  2 13  1  0  0  0  0
  2 14  1  0  0  0  0
  2 15  1  0  0  0  0
  3 16  1  0  0  0  0
  3 17  1  0  0  0  0
  3 18  1  0  0  0  0
  4 19  1  0  0  0  0
  4 20  1  0  0  0  0
  4 21  1  0  0  0  0
  5 22  1  0  0  0  0
  5 23  1  0  0  0  0
  6 24  1  0  0  0  0
  6 25  1  0  0  0  0
  7 26  1  0  0  0  0
  7 27  1  0  0  0  0
  8 28  1  0  0  0  0
  8 29  1  0  0  0  0
  9 30  1  0  0  0  0
  9 31  1  0  0  0  0
M  END
> <FRED Chemgauss4 score>
-4.962275

$$$$
C37487654	P55750519
  -OEChem-05122015083D

 32 32  0     0  0  0  0  0  0999 V2000
   55.8419  156.3443   -6.1020 C   0  0  0  0  0  0  0  0  0  0  0  0
   56.1388  156.7771   -4.8512 C   0  0  0  0  0  0  0  0  0  0  0  0
   54.4785  155.8201   -6.4052 C   0  0  0  0  0  0  0  0  0  0  0  0
   53.8595  156.2505   -4.0541 C   0  0  0  0  0  0  0  0  0  0  0  0
   60.1097  156.6944   -8.0735 C   0  0  0  0  0  0  0  0  0  0  0  0
   60.9086  157.9553   -8.0887 C   0  0  0  0  0  0  0  0  0  0  0  0
   55.5171  157.2066   -2.5030 C   0  0  0  0  0  0  0  0  0  0  0  0
   57.5223  155.1904   -7.4332 C   0  0  0  0  0  0  0  0  0  0  0  0
   58.7896  155.1932   -6.5949 C   0  0  0  0  0  0  0  0  0  0  0  0
   53.5982  155.8177   -5.3465 N   0  0  0  0  0  0  0  0  0  0  0  0
   55.1603  156.7307   -3.8411 N   0  0  0  0  0  0  0  0  0  0  0  0
   57.4065  157.2604   -4.5905 N   0  0  0  0  0  0  0  0  0  0  0  0
   56.6973  156.3347   -7.1711 N   0  0  0  0  0  0  0  0  0  0  0  0
   59.5896  156.3642   -6.8320 N   0  0  0  0  0  0  0  0  0  0  0  0
   54.1766  155.4218   -7.5284 O   0  0  0  0  0  0  0  0  0  0  0  0
   52.9822  156.1992   -3.1882 O   0  0  0  0  0  0  0  0  0  0  0  0
   59.9667  156.0572   -9.1104 O   0  0  0  0  0  0  0  0  0  0  0  0
   61.9764  157.7791   -7.8813 H   0  0  0  0  0  0  0  0  0  0  0  0
   60.8816  158.4583   -9.0687 H   0  0  0  0  0  0  0  0  0  0  0  0
   60.5947  158.7209   -7.3614 H   0  0  0  0  0  0  0  0  0  0  0  0
   55.3011  158.2745   -2.4140 H   0  0  0  0  0  0  0  0  0  0  0  0
   56.5824  157.0463   -2.3163 H   0  0  0  0  0  0  0  0  0  0  0  0
   54.9433  156.6672   -1.7445 H   0  0  0  0  0  0  0  0  0  0  0  0
   56.9169  154.2994   -7.2390 H   0  0  0  0  0  0  0  0  0  0  0  0
   57.7756  155.2143   -8.4976 H   0  0  0  0  0  0  0  0  0  0  0  0
   58.5391  155.1855   -5.5296 H   0  0  0  0  0  0  0  0  0  0  0  0
   59.4128  154.3195   -6.8113 H   0  0  0  0  0  0  0  0  0  0  0  0
   52.6629  155.4650   -5.5290 H   0  0  0  0  0  0  0  0  0  0  0  0
   58.0564  157.2720   -5.3353 H   0  0  0  0  0  0  0  0  0  0  0  0
   57.6008  157.5705   -3.6721 H   0  0  0  0  0  0  0  0  0  0  0  0
   56.7090  157.1467   -7.7372 H   0  0  0  0  0  0  0  0  0  0  0  0
   59.7844  156.9834   -6.0464 H   0  0  0  0  0  0  0  0  0  0  0  0
  1  2  2  0  0  0  0
  1  3  1  0  0  0  0
  1 13  1  0  0  0  0
  2 11  1  0  0  0  0
  2 12  1  0  0  0  0
  3 10  1  0  0  0  0
  3 15  2  0  0  0  0
  4 10  1  0  0  0  0
  4 11  1  0  0  0  0
  4 16  2  0  0  0  0
  5  6  1  0  0  0  0
  5 14  1  0  0  0  0
  5 17  2  0  0  0  0
  7 11  1  0  0  0  0
  8  9  1  0  0  0  0
  8 13  1  0  0  0  0
  9 14  1  0  0  0  0
  6 18  1  0  0  0  0
  6 19  1  0  0  0  0
  6 20  1  0  0  0  0
  7 21  1  0  0  0  0
  7 22  1  0  0  0  0
  7 23  1  0  0  0  0
  8 24  1  0  0  0  0
  8 25  1  0  0  0  0
  9 26  1  0  0  0  0
  9 27  1  0  0  0  0
 10 28  1  0  0  0  0
 12 29  1  0  0  0  0
 12 30  1  0  0  0  0
 13 31  1  0  0  0  0
 14 32  1  0  0  0  0
M  END
> <FRED Chemgauss4 score>
-4.961267

$$$$
C20470614	P30514351
  -OEChem-05122015083D

 17 16  0     0  0  0  0  0  0999 V2000
   53.7629  155.9009   -5.9806 C   0  0  0  0  0  0  0  0  0  0  0  0
   54.5172  155.3346   -4.7929 C   0  0  0  0  0  0  0  0  0  0  0  0
   52.6467  157.7807   -6.8091 N   0  0  0  0  0  0  0  0  0  0  0  0
   52.2455  155.1539   -3.4299 N   0  0  0  0  0  0  0  0  0  0  0  0
   53.7086  157.3371   -5.9539 N   0  0  0  0  0  0  0  0  0  0  0  0
   54.4986  155.1130   -2.1895 O   0  0  0  0  0  0  0  0  0  0  0  0
   53.6980  157.2682   -3.2380 O   0  0  0  0  0  0  0  0  0  0  0  0
   53.8047  155.8198   -3.2519 S   0  0  0  0  0  0  0  0  0  0  0  0
   54.2246  155.6054   -6.9278 H   0  0  0  0  0  0  0  0  0  0  0  0
   52.7287  155.5435   -5.9746 H   0  0  0  0  0  0  0  0  0  0  0  0
   55.5467  155.7049   -4.7839 H   0  0  0  0  0  0  0  0  0  0  0  0
   54.5355  154.2407   -4.8071 H   0  0  0  0  0  0  0  0  0  0  0  0
   52.1733  156.9690   -7.2049 H   0  0  0  0  0  0  0  0  0  0  0  0
   51.9449  158.2693   -6.2546 H   0  0  0  0  0  0  0  0  0  0  0  0
   52.0068  154.3349   -2.8572 H   0  0  0  0  0  0  0  0  0  0  0  0
   51.4616  155.8028   -3.5715 H   0  0  0  0  0  0  0  0  0  0  0  0
   54.5884  157.7367   -6.2982 H   0  0  0  0  0  0  0  0  0  0  0  0
  1  2  1  0  0  0  0
  1  5  1  0  0  0  0
  2  8  1  0  0  0  0
  3  5  1  0  0  0  0
  4  8  1  0  0  0  0
  6  8  2  0  0  0  0
  7  8  2  0  0  0  0
  1  9  1  0  0  0  0
  1 10  1  0  0  0  0
  2 11  1  0  0  0  0
  2 12  1  0  0  0  0
  3 13  1  0  0  0  0
  3 14  1  0  0  0  0
  4 15  1  0  0  0  0
  4 16  1  0  0  0  0
  5 17  1  0  0  0  0
M  END
> <FRED Chemgauss4 score>
-4.958654

$$$$
C34616736	P51361932
  -OEChem-05122015083D

 16 16  0     1  0  0  0  0  0999 V2000
   55.0983  156.6933   -6.0722 C   0  0  0  0  0  0  0  0  0  0  0  0
   53.4842  155.8860   -3.8262 C   0  0  0  0  0  0  0  0  0  0  0  0
   55.0589  157.3042   -2.4491 C   0  0  0  0  0  0  0  0  0  0  0  0
   54.2735  155.4299   -6.1291 C   0  0  0  0  0  0  0  0  0  0  0  0
   54.8936  156.4000   -3.6230 C   0  0  2  0  0  0  0  0  0  0  0  0
   53.2215  155.5263   -5.1380 N   0  0  0  0  0  0  0  0  0  0  0  0
   55.2616  157.1853   -4.7878 N   0  0  0  0  0  0  0  0  0  0  0  0
   55.6566  157.1613   -7.0612 O   0  0  0  0  0  0  0  0  0  0  0  0
   52.6939  155.7105   -2.9022 O   0  0  0  0  0  0  0  0  0  0  0  0
   55.3885  158.4818   -2.5440 O   0  0  0  0  0  0  0  0  0  0  0  0
   54.8648  156.8470   -1.4642 H   0  0  0  0  0  0  0  0  0  0  0  0
   53.8076  155.3285   -7.1124 H   0  0  0  0  0  0  0  0  0  0  0  0
   54.9006  154.5618   -5.9074 H   0  0  0  0  0  0  0  0  0  0  0  0
   55.5835  155.5546   -3.5364 H   0  0  0  0  0  0  0  0  0  0  0  0
   52.2649  155.3247   -5.4123 H   0  0  0  0  0  0  0  0  0  0  0  0
   55.6475  158.1164   -4.6576 H   0  0  0  0  0  0  0  0  0  0  0  0
  1  4  1  0  0  0  0
  1  7  1  0  0  0  0
  1  8  2  0  0  0  0
  2  5  1  0  0  0  0
  2  6  1  0  0  0  0
  2  9  2  0  0  0  0
  3  5  1  0  0  0  0
  3 10  2  0  0  0  0
  4  6  1  0  0  0  0
  5  7  1  0  0  0  0
  3 11  1  0  0  0  0
  4 12  1  0  0  0  0
  4 13  1  0  0  0  0
  5 14  1  0  0  0  0
  6 15  1  0  0  0  0
  7 16  1  0  0  0  0
M  END
> <FRED Chemgauss4 score>
-4.954915

$$$$
C82680771	P129217506
  -OEChem-05122015083D

 24 23  0     1  0  0  0  0  0999 V2000
   54.1170  155.3831   -4.4130 C   0  0  0  0  0  0  0  0  0  0  0  0
   55.6945  157.0332   -5.4710 C   0  0  0  0  0  0  0  0  0  0  0  0
   57.6092  156.2231   -6.6701 C   0  0  0  0  0  0  0  0  0  0  0  0
   54.8219  156.7239   -4.2571 C   0  0  1  0  0  0  0  0  0  0  0  0
   59.0922  155.8622   -6.5447 C   0  0  1  0  0  0  0  0  0  0  0  0
   59.6806  155.2415   -7.7985 C   0  0  0  0  0  0  0  0  0  0  0  0
   56.9452  156.3153   -5.3724 N   0  0  0  0  0  0  0  0  0  0  0  0
   53.8351  157.7463   -4.1330 O   0  0  0  0  0  0  0  0  0  0  0  0
   59.8289  157.0553   -6.2747 O   0  0  0  0  0  0  0  0  0  0  0  0
   59.1012  154.0567   -8.0877 F   0  0  0  0  0  0  0  0  0  0  0  0
   61.0088  155.0331   -7.6729 F   0  0  0  0  0  0  0  0  0  0  0  0
   59.4902  156.0499   -8.8660 F   0  0  0  0  0  0  0  0  0  0  0  0
   53.5075  155.3573   -5.3215 H   0  0  0  0  0  0  0  0  0  0  0  0
   54.8410  154.5616   -4.4507 H   0  0  0  0  0  0  0  0  0  0  0  0
   53.4666  155.1897   -3.5531 H   0  0  0  0  0  0  0  0  0  0  0  0
   55.1923  156.7340   -6.3973 H   0  0  0  0  0  0  0  0  0  0  0  0
   55.9114  158.1048   -5.5286 H   0  0  0  0  0  0  0  0  0  0  0  0
   57.4991  157.1725   -7.2068 H   0  0  0  0  0  0  0  0  0  0  0  0
   57.0994  155.4699   -7.2828 H   0  0  0  0  0  0  0  0  0  0  0  0
   55.4240  156.7224   -3.3411 H   0  0  0  0  0  0  0  0  0  0  0  0
   59.2481  155.1833   -5.6982 H   0  0  0  0  0  0  0  0  0  0  0  0
   57.5693  156.7944   -4.7180 H   0  0  0  0  0  0  0  0  0  0  0  0
   53.3119  157.5296   -3.3461 H   0  0  0  0  0  0  0  0  0  0  0  0
   59.6716  157.6493   -7.0239 H   0  0  0  0  0  0  0  0  0  0  0  0
  1  4  1  0  0  0  0
  2  4  1  0  0  0  0
  2  7  1  0  0  0  0
  3  5  1  0  0  0  0
  3  7  1  0  0  0  0
  4  8  1  0  0  0  0
  5  6  1  0  0  0  0
  5  9  1  0  0  0  0
  6 10  1  0  0  0  0
  6 11  1  0  0  0  0
  6 12  1  0  0  0  0
  1 13  1  0  0  0  0
  1 14  1  0  0  0  0
  1 15  1  0  0  0  0
  2 16  1  0  0  0  0
  2 17  1  0  0  0  0
  3 18  1  0  0  0  0
  3 19  1  0  0  0  0
  4 20  1  0  0  0  0
  5 21  1  0  0  0  0
  7 22  1  0  0  0  0
  8 23  1  0  0  0  0
  9 24  1  0  0  0  0
M  END
> <FRED Chemgauss4 score>
-4.949719

$$$$
C82987538	P129754919
  -OEChem-05122015083D

 32 33  0     1  0  0  0  0  0999 V2000
   58.6297  153.8289   -7.0049 C   0  0  0  0  0  0  0  0  0  0  0  0
   57.4481  155.6338   -6.6742 C   0  0  0  0  0  0  0  0  0  0  0  0
   56.2788  156.4569   -6.2655 C   0  0  0  0  0  0  0  0  0  0  0  0
   56.3869  153.5429   -5.8713 C   0  0  0  0  0  0  0  0  0  0  0  0
   55.1089  154.3860   -5.7564 C   0  0  0  0  0  0  0  0  0  0  0  0
   54.5500  156.2606   -2.4739 C   0  0  0  0  0  0  0  0  0  0  0  0
   53.2521  156.3300   -6.2175 C   0  0  0  0  0  0  0  0  0  0  0  0
   54.2068  156.5073   -5.0285 C   0  0  1  0  0  0  0  0  0  0  0  0
   53.5972  156.1076   -3.6616 C   0  0  2  0  0  0  0  0  0  0  0  0
   59.3242  154.8509   -7.4579 N   0  0  0  0  0  0  0  0  0  0  0  0
   58.5742  155.9971   -7.2504 N   0  0  0  0  0  0  0  0  0  0  0  0
   57.4519  154.2783   -6.5126 N   0  0  0  0  0  0  0  0  0  0  0  0
   55.4286  155.7474   -5.2875 N   0  0  2  0  0  0  0  0  0  0  0  0
   52.3920  156.9002   -3.3958 N   0  0  0  0  0  0  0  0  0  0  0  0
   52.3773  157.4515   -6.2965 O   0  0  0  0  0  0  0  0  0  0  0  0
   58.9313  152.7914   -7.0097 H   0  0  0  0  0  0  0  0  0  0  0  0
   56.6426  157.3905   -5.8207 H   0  0  0  0  0  0  0  0  0  0  0  0
   55.7072  156.7154   -7.1662 H   0  0  0  0  0  0  0  0  0  0  0  0
   56.7551  153.2604   -4.8781 H   0  0  0  0  0  0  0  0  0  0  0  0
   56.2001  152.6350   -6.4538 H   0  0  0  0  0  0  0  0  0  0  0  0
   54.6000  154.4264   -6.7291 H   0  0  0  0  0  0  0  0  0  0  0  0
   54.4310  153.8860   -5.0542 H   0  0  0  0  0  0  0  0  0  0  0  0
   54.8944  157.2940   -2.3688 H   0  0  0  0  0  0  0  0  0  0  0  0
   55.4422  155.6383   -2.6108 H   0  0  0  0  0  0  0  0  0  0  0  0
   54.0812  155.9598   -1.5309 H   0  0  0  0  0  0  0  0  0  0  0  0
   53.8033  156.2788   -7.1614 H   0  0  0  0  0  0  0  0  0  0  0  0
   52.6435  155.4243   -6.1218 H   0  0  0  0  0  0  0  0  0  0  0  0
   54.5090  157.5621   -4.9855 H   0  0  0  0  0  0  0  0  0  0  0  0
   53.2892  155.0551   -3.7132 H   0  0  0  0  0  0  0  0  0  0  0  0
   52.0912  156.9825   -2.4521 H   0  0  0  0  0  0  0  0  0  0  0  0
   51.8199  157.1461   -4.1706 H   0  0  0  0  0  0  0  0  0  0  0  0
   51.7962  157.2963   -7.0574 H   0  0  0  0  0  0  0  0  0  0  0  0
  1 10  2  0  0  0  0
  1 12  1  0  0  0  0
  2  3  1  0  0  0  0
  2 11  2  0  0  0  0
  2 12  1  0  0  0  0
  3 13  1  0  0  0  0
  4  5  1  0  0  0  0
  4 12  1  0  0  0  0
  5 13  1  0  0  0  0
  6  9  1  0  0  0  0
  7  8  1  0  0  0  0
  7 15  1  0  0  0  0
  8  9  1  0  0  0  0
  8 13  1  0  0  0  0
  9 14  1  0  0  0  0
 10 11  1  0  0  0  0
  1 16  1  0  0  0  0
  3 17  1  0  0  0  0
  3 18  1  0  0  0  0
  4 19  1  0  0  0  0
  4 20  1  0  0  0  0
  5 21  1  0  0  0  0
  5 22  1  0  0  0  0
  6 23  1  0  0  0  0
  6 24  1  0  0  0  0
  6 25  1  0  0  0  0
  7 26  1  0  0  0  0
  7 27  1  0  0  0  0
  8 28  1  0  0  0  0
  9 29  1  0  0  0  0
 14 30  1  0  0  0  0
 14 31  1  0  0  0  0
 15 32  1  0  0  0  0
M  END
> <FRED Chemgauss4 score>
-4.945963

$$$$
C17014094	P25603870
  -OEChem-05122015083D

 18 17  0     0  0  0  0  0  0999 V2000
   56.1739  157.0503   -5.6489 C   0  0  0  0  0  0  0  0  0  0  0  0
   55.8998  157.9531   -4.6990 C   0  0  0  0  0  0  0  0  0  0  0  0
   57.5888  156.7930   -6.0388 C   0  0  0  0  0  0  0  0  0  0  0  0
   54.4851  158.2097   -4.3085 C   0  0  0  0  0  0  0  0  0  0  0  0
   59.7155  157.8482   -6.1943 N   0  0  0  0  0  0  0  0  0  0  0  0
   52.3939  158.9470   -5.2007 N   0  0  0  0  0  0  0  0  0  0  0  0
   58.3735  157.9189   -5.8765 N   0  0  0  0  0  0  0  0  0  0  0  0
   53.7339  158.6569   -5.3807 N   0  0  0  0  0  0  0  0  0  0  0  0
   57.9719  155.7017   -6.4490 O   0  0  0  0  0  0  0  0  0  0  0  0
   54.0728  158.0353   -3.1660 O   0  0  0  0  0  0  0  0  0  0  0  0
   55.3935  156.4906   -6.1537 H   0  0  0  0  0  0  0  0  0  0  0  0
   56.6804  158.5131   -4.1947 H   0  0  0  0  0  0  0  0  0  0  0  0
   59.9825  158.7642   -6.5529 H   0  0  0  0  0  0  0  0  0  0  0  0
   59.8000  157.2035   -6.9792 H   0  0  0  0  0  0  0  0  0  0  0  0
   51.9130  158.7185   -6.0697 H   0  0  0  0  0  0  0  0  0  0  0  0
   52.0348  158.3054   -4.4948 H   0  0  0  0  0  0  0  0  0  0  0  0
   57.9700  158.7837   -5.5294 H   0  0  0  0  0  0  0  0  0  0  0  0
   54.1635  158.7714   -6.2935 H   0  0  0  0  0  0  0  0  0  0  0  0
  1  2  2  0  0  0  0
  1  3  1  0  0  0  0
  2  4  1  0  0  0  0
  3  7  1  0  0  0  0
  3  9  2  0  0  0  0
  4  8  1  0  0  0  0
  4 10  2  0  0  0  0
  5  7  1  0  0  0  0
  6  8  1  0  0  0  0
  1 11  1  0  0  0  0
  2 12  1  0  0  0  0
  5 13  1  0  0  0  0
  5 14  1  0  0  0  0
  6 15  1  0  0  0  0
  6 16  1  0  0  0  0
  7 17  1  0  0  0  0
  8 18  1  0  0  0  0
M  END
> <FRED Chemgauss4 score>
-4.939435

$$$$
C70628890	P108955305
  -OEChem-05122015083D

 23 23  0     1  0  0  0  0  0999 V2000
   59.3590  155.0263   -6.6695 C   0  0  0  0  0  0  0  0  0  0  0  0
   58.3288  154.1560   -6.9623 C   0  0  0  0  0  0  0  0  0  0  0  0
   59.0116  156.1326   -5.9215 C   0  0  0  0  0  0  0  0  0  0  0  0
   56.8427  155.4574   -5.8377 C   0  0  0  0  0  0  0  0  0  0  0  0
   54.4479  155.7313   -6.5548 C   0  0  0  0  0  0  0  0  0  0  0  0
   55.3409  156.9792   -4.5064 C   0  0  0  0  0  0  0  0  0  0  0  0
   55.4169  155.7011   -5.3657 C   0  0  2  0  0  0  0  0  0  0  0  0
   57.0541  154.3413   -6.5609 N   0  0  0  0  0  0  0  0  0  0  0  0
   57.7585  156.3806   -5.4873 N   0  0  0  0  0  0  0  0  0  0  0  0
   60.0412  157.0502   -5.5985 N   0  0  0  0  0  0  0  0  0  0  0  0
   53.9778  157.2728   -4.0732 N   0  0  0  0  0  0  0  0  0  0  0  0
   60.3695  154.8399   -7.0106 H   0  0  0  0  0  0  0  0  0  0  0  0
   58.5058  153.2583   -7.5447 H   0  0  0  0  0  0  0  0  0  0  0  0
   54.6825  156.5560   -7.2354 H   0  0  0  0  0  0  0  0  0  0  0  0
   53.4087  155.8518   -6.2299 H   0  0  0  0  0  0  0  0  0  0  0  0
   54.5105  154.8029   -7.1340 H   0  0  0  0  0  0  0  0  0  0  0  0
   55.9836  156.8956   -3.6222 H   0  0  0  0  0  0  0  0  0  0  0  0
   55.7055  157.8356   -5.0863 H   0  0  0  0  0  0  0  0  0  0  0  0
   55.1195  154.8530   -4.7328 H   0  0  0  0  0  0  0  0  0  0  0  0
   60.9757  156.8436   -5.8777 H   0  0  0  0  0  0  0  0  0  0  0  0
   59.8248  157.8325   -5.0195 H   0  0  0  0  0  0  0  0  0  0  0  0
   53.7411  158.2217   -3.8791 H   0  0  0  0  0  0  0  0  0  0  0  0
   53.4000  156.5100   -3.7929 H   0  0  0  0  0  0  0  0  0  0  0  0
  1  2  1  0  0  0  0
  1  3  2  0  0  0  0
  2  8  2  0  0  0  0
  3  9  1  0  0  0  0
  3 10  1  0  0  0  0
  4  7  1  0  0  0  0
  4  8  1  0  0  0  0
  4  9  2  0  0  0  0
  5  7  1  0  0  0  0
  6  7  1  0  0  0  0
  6 11  1  0  0  0  0
  1 12  1  0  0  0  0
  2 13  1  0  0  0  0
  5 14  1  0  0  0  0
  5 15  1  0  0  0  0
  5 16  1  0  0  0  0
  6 17  1  0  0  0  0
  6 18  1  0  0  0  0
  7 19  1  0  0  0  0
 10 20  1  0  0  0  0
 10 21  1  0  0  0  0
 11 22  1  0  0  0  0
 11 23  1  0  0  0  0
M  END
> <FRED Chemgauss4 score>
-4.938826

$$$$
C83747697	P131020663
  -OEChem-05122015083D

 29 29  0     1  0  0  0  0  0999 V2000
   54.8985  157.0469   -2.8621 C   0  0  0  0  0  0  0  0  0  0  0  0
   55.5621  156.2231   -3.9427 C   0  0  0  0  0  0  0  0  0  0  0  0
   56.7629  159.0267   -4.3829 C   0  0  0  0  0  0  0  0  0  0  0  0
   56.8633  158.6091   -2.9221 C   0  0  0  0  0  0  0  0  0  0  0  0
   56.6962  157.8500   -5.3634 C   0  0  0  0  0  0  0  0  0  0  0  0
   54.0043  155.5848   -6.5153 C   0  0  0  0  0  0  0  0  0  0  0  0
   55.4601  156.0410   -6.3335 C   0  0  2  0  0  0  0  0  0  0  0  0
   56.4260  154.8926   -6.0699 C   0  0  0  0  0  0  0  0  0  0  0  0
   55.5896  158.1459   -2.4089 N   0  0  0  0  0  0  0  0  0  0  0  0
   55.5213  156.9748   -5.2029 N   0  0  1  0  0  0  0  0  0  0  0  0
   53.0941  156.7077   -6.7185 N   0  0  0  0  0  0  0  0  0  0  0  0
   53.7964  156.7308   -2.4100 O   0  0  0  0  0  0  0  0  0  0  0  0
   57.6883  155.3332   -5.8777 F   0  0  0  0  0  0  0  0  0  0  0  0
   56.4455  154.0267   -7.1094 F   0  0  0  0  0  0  0  0  0  0  0  0
   56.0670  154.1861   -4.9753 F   0  0  0  0  0  0  0  0  0  0  0  0
   56.5726  155.9187   -3.6476 H   0  0  0  0  0  0  0  0  0  0  0  0
   54.9715  155.3000   -4.0181 H   0  0  0  0  0  0  0  0  0  0  0  0
   55.8936  159.6801   -4.5309 H   0  0  0  0  0  0  0  0  0  0  0  0
   57.6506  159.6203   -4.6345 H   0  0  0  0  0  0  0  0  0  0  0  0
   57.6151  157.8267   -2.7750 H   0  0  0  0  0  0  0  0  0  0  0  0
   57.1505  159.4711   -2.3109 H   0  0  0  0  0  0  0  0  0  0  0  0
   56.6752  158.2893   -6.3696 H   0  0  0  0  0  0  0  0  0  0  0  0
   57.6250  157.2670   -5.3002 H   0  0  0  0  0  0  0  0  0  0  0  0
   53.9202  154.8966   -7.3651 H   0  0  0  0  0  0  0  0  0  0  0  0
   53.6709  155.0399   -5.6239 H   0  0  0  0  0  0  0  0  0  0  0  0
   55.7879  156.5750   -7.2336 H   0  0  0  0  0  0  0  0  0  0  0  0
   55.1601  158.6902   -1.6671 H   0  0  0  0  0  0  0  0  0  0  0  0
   52.1389  156.5913   -6.4568 H   0  0  0  0  0  0  0  0  0  0  0  0
   53.4027  157.4650   -7.2895 H   0  0  0  0  0  0  0  0  0  0  0  0
  1  2  1  0  0  0  0
  1  9  1  0  0  0  0
  1 12  2  0  0  0  0
  2 10  1  0  0  0  0
  3  4  1  0  0  0  0
  3  5  1  0  0  0  0
  4  9  1  0  0  0  0
  5 10  1  0  0  0  0
  6  7  1  0  0  0  0
  6 11  1  0  0  0  0
  7  8  1  0  0  0  0
  7 10  1  0  0  0  0
  8 13  1  0  0  0  0
  8 14  1  0  0  0  0
  8 15  1  0  0  0  0
  2 16  1  0  0  0  0
  2 17  1  0  0  0  0
  3 18  1  0  0  0  0
  3 19  1  0  0  0  0
  4 20  1  0  0  0  0
  4 21  1  0  0  0  0
  5 22  1  0  0  0  0
  5 23  1  0  0  0  0
  6 24  1  0  0  0  0
  6 25  1  0  0  0  0
  7 26  1  0  0  0  0
  9 27  1  0  0  0  0
 11 28  1  0  0  0  0
 11 29  1  0  0  0  0
M  END
> <FRED Chemgauss4 score>
-4.937119

$$$$
C39134860	P154331472
  -OEChem-05122015083D

 14 14  0     0  0  0  0  0  0999 V2000
   56.5173  154.4391   -5.4558 C   0  0  0  0  0  0  0  0  0  0  0  0
   56.2476  155.1991   -6.5747 C   0  0  0  0  0  0  0  0  0  0  0  0
   54.7926  155.5556   -4.6883 C   0  0  0  0  0  0  0  0  0  0  0  0
   53.7807  155.9972   -3.7890 C   0  0  0  0  0  0  0  0  0  0  0  0
   55.6843  154.6425   -4.3730 N   0  0  0  0  0  0  0  0  0  0  0  0
   54.1731  156.5504   -2.6392 N   0  0  0  0  0  0  0  0  0  0  0  0
   52.3949  155.8791   -4.0491 N   0  0  0  0  0  0  0  0  0  0  0  0
   55.5638  156.6071   -2.5024 O   0  0  0  0  0  0  0  0  0  0  0  0
   54.8971  156.2116   -6.2706 S   0  0  0  0  0  0  0  0  0  0  0  0
   57.3185  153.7166   -5.3756 H   0  0  0  0  0  0  0  0  0  0  0  0
   56.7625  155.2064   -7.5245 H   0  0  0  0  0  0  0  0  0  0  0  0
   52.0604  155.4817   -4.9195 H   0  0  0  0  0  0  0  0  0  0  0  0
   51.6897  156.2194   -3.4039 H   0  0  0  0  0  0  0  0  0  0  0  0
   55.6568  157.0277   -1.6310 H   0  0  0  0  0  0  0  0  0  0  0  0
  1  2  2  0  0  0  0
  1  5  1  0  0  0  0
  2  9  1  0  0  0  0
  3  4  1  0  0  0  0
  3  5  2  0  0  0  0
  3  9  1  0  0  0  0
  4  6  2  0  0  0  0
  4  7  1  0  0  0  0
  6  8  1  0  0  0  0
  1 10  1  0  0  0  0
  2 11  1  0  0  0  0
  7 12  1  0  0  0  0
  7 13  1  0  0  0  0
  8 14  1  0  0  0  0
M  END
> <FRED Chemgauss4 score>
-4.935861

$$$$
C84249743	P131855991
  -OEChem-05122015083D

 21 21  0     1  0  0  0  0  0999 V2000
   53.5501  156.1550   -3.4468 C   0  0  0  0  0  0  0  0  0  0  0  0
   55.0556  156.2166   -3.5240 C   0  0  0  0  0  0  0  0  0  0  0  0
   55.3067  156.8392   -4.8960 C   0  0  0  0  0  0  0  0  0  0  0  0
   54.1080  156.3888   -5.7387 C   0  0  2  0  0  0  0  0  0  0  0  0
   54.3595  155.0220   -6.3854 C   0  0  0  0  0  0  0  0  0  0  0  0
   53.7508  157.4210   -6.8065 C   0  0  0  0  0  0  0  0  0  0  0  0
   53.0615  156.2844   -4.7425 N   0  0  0  0  0  0  0  0  0  0  0  0
   53.4107  158.6572   -6.1869 N   0  0  0  0  0  0  0  0  0  0  0  0
   52.9017  155.9838   -2.4261 O   0  0  0  0  0  0  0  0  0  0  0  0
   55.4637  156.8324   -2.7188 H   0  0  0  0  0  0  0  0  0  0  0  0
   55.4576  155.2011   -3.4602 H   0  0  0  0  0  0  0  0  0  0  0  0
   55.3164  157.9319   -4.7875 H   0  0  0  0  0  0  0  0  0  0  0  0
   56.2730  156.5426   -5.3162 H   0  0  0  0  0  0  0  0  0  0  0  0
   53.4925  154.7333   -6.9740 H   0  0  0  0  0  0  0  0  0  0  0  0
   54.5332  154.2798   -5.6107 H   0  0  0  0  0  0  0  0  0  0  0  0
   55.2314  155.0806   -7.0317 H   0  0  0  0  0  0  0  0  0  0  0  0
   52.9027  157.0569   -7.3708 H   0  0  0  0  0  0  0  0  0  0  0  0
   54.6050  157.5672   -7.4535 H   0  0  0  0  0  0  0  0  0  0  0  0
   52.0716  156.3037   -4.9675 H   0  0  0  0  0  0  0  0  0  0  0  0
   52.9121  158.6594   -5.3034 H   0  0  0  0  0  0  0  0  0  0  0  0
   53.4799  159.5220   -6.7131 H   0  0  0  0  0  0  0  0  0  0  0  0
  1  2  1  0  0  0  0
  1  7  1  0  0  0  0
  1  9  2  0  0  0  0
  2  3  1  0  0  0  0
  3  4  1  0  0  0  0
  4  5  1  0  0  0  0
  4  6  1  0  0  0  0
  4  7  1  0  0  0  0
  6  8  1  0  0  0  0
  2 10  1  0  0  0  0
  2 11  1  0  0  0  0
  3 12  1  0  0  0  0
  3 13  1  0  0  0  0
  5 14  1  0  0  0  0
  5 15  1  0  0  0  0
  5 16  1  0  0  0  0
  6 17  1  0  0  0  0
  6 18  1  0  0  0  0
  7 19  1  0  0  0  0
  8 20  1  0  0  0  0
  8 21  1  0  0  0  0
M  END
> <FRED Chemgauss4 score>
-4.925653

$$$$
C85353245	P133560517
  -OEChem-05122015083D

 24 25  0     1  0  0  0  0  0999 V2000
   55.1081  157.9571   -2.8428 C   0  0  0  0  0  0  0  0  0  0  0  0
   54.4047  157.4010   -4.7277 C   0  0  0  0  0  0  0  0  0  0  0  0
   55.3996  158.6569   -0.4083 C   0  0  0  0  0  0  0  0  0  0  0  0
   57.4266  159.8072   -0.5432 C   0  0  0  0  0  0  0  0  0  0  0  0
   56.0709  158.2877   -1.7287 C   0  0  2  0  0  0  0  0  0  0  0  0
   56.9633  159.5041   -1.9580 C   0  0  2  0  0  0  0  0  0  0  0  0
   54.2167  156.9890   -6.1281 C   0  0  0  0  0  0  0  0  0  0  0  0
   55.5348  157.5932   -4.0878 N   0  0  0  0  0  0  0  0  0  0  0  0
   53.7852  158.0021   -2.6720 N   0  0  0  0  0  0  0  0  0  0  0  0
   53.3590  157.6423   -3.8923 N   0  0  0  0  0  0  0  0  0  0  0  0
   58.0721  159.2472   -2.8618 N   0  0  0  0  0  0  0  0  0  0  0  0
   56.3361  159.4634    0.3248 O   0  0  0  0  0  0  0  0  0  0  0  0
   54.4625  159.2068   -0.5235 H   0  0  0  0  0  0  0  0  0  0  0  0
   55.2056  157.7633    0.1923 H   0  0  0  0  0  0  0  0  0  0  0  0
   58.3223  159.2661   -0.2366 H   0  0  0  0  0  0  0  0  0  0  0  0
   57.6162  160.8754   -0.4194 H   0  0  0  0  0  0  0  0  0  0  0  0
   56.6852  157.3478   -1.5771 H   0  0  0  0  0  0  0  0  0  0  0  0
   56.3828  160.3799   -2.3642 H   0  0  0  0  0  0  0  0  0  0  0  0
   54.1691  155.8901   -6.2205 H   0  0  0  0  0  0  0  0  0  0  0  0
   53.2874  157.3988   -6.5633 H   0  0  0  0  0  0  0  0  0  0  0  0
   55.0357  157.3415   -6.7811 H   0  0  0  0  0  0  0  0  0  0  0  0
   52.3634  157.5857   -4.0722 H   0  0  0  0  0  0  0  0  0  0  0  0
   58.8985  159.7897   -2.7494 H   0  0  0  0  0  0  0  0  0  0  0  0
   57.8940  158.6965   -3.6711 H   0  0  0  0  0  0  0  0  0  0  0  0
  1  5  1  0  0  0  0
  1  8  1  0  0  0  0
  1  9  2  0  0  0  0
  2  7  1  0  0  0  0
  2  8  2  0  0  0  0
  2 10  1  0  0  0  0
  3  5  1  0  0  0  0
  3 12  1  0  0  0  0
  4  6  1  0  0  0  0
  4 12  1  0  0  0  0
  5  6  1  0  0  0  0
  6 11  1  0  0  0  0
  9 10  1  0  0  0  0
  3 13  1  0  0  0  0
  3 14  1  0  0  0  0
  4 15  1  0  0  0  0
  4 16  1  0  0  0  0
  5 17  1  0  0  0  0
  6 18  1  0  0  0  0
  7 19  1  0  0  0  0
  7 20  1  0  0  0  0
  7 21  1  0  0  0  0
 10 22  1  0  0  0  0
 11 23  1  0  0  0  0
 11 24  1  0  0  0  0
M  END
> <FRED Chemgauss4 score>
-4.923773

$$$$
C49647899	P74165113
  -OEChem-05122015083D

 25 25  0     1  0  0  0  0  0999 V2000
   53.8907  156.1364   -3.2348 C   0  0  0  0  0  0  0  0  0  0  0  0
   55.4592  155.3940   -4.8803 C   0  0  0  0  0  0  0  0  0  0  0  0
   55.9401  156.6995   -4.2724 C   0  0  0  0  0  0  0  0  0  0  0  0
   53.9838  155.3241   -4.5023 C   0  0  2  0  0  0  0  0  0  0  0  0
   57.1246  160.1871   -1.3313 C   0  0  0  0  0  0  0  0  0  0  0  0
   55.3400  157.8783   -2.1254 C   0  0  0  0  0  0  0  0  0  0  0  0
   55.5377  159.2338   -2.7789 C   0  0  0  0  0  0  0  0  0  0  0  0
   55.0625  156.8858   -3.1408 N   0  0  0  0  0  0  0  0  0  0  0  0
   53.1405  155.9988   -5.5041 N   0  0  0  0  0  0  0  0  0  0  0  0
   52.9290  156.1449   -2.4800 O   0  0  0  0  0  0  0  0  0  0  0  0
   55.7749  160.2122   -1.7747 O   0  0  0  0  0  0  0  0  0  0  0  0
   55.6538  155.3308   -5.9556 H   0  0  0  0  0  0  0  0  0  0  0  0
   55.9878  154.5570   -4.4055 H   0  0  0  0  0  0  0  0  0  0  0  0
   56.9827  156.6440   -3.9469 H   0  0  0  0  0  0  0  0  0  0  0  0
   55.8065  157.5436   -4.9567 H   0  0  0  0  0  0  0  0  0  0  0  0
   53.6549  154.3001   -4.3428 H   0  0  0  0  0  0  0  0  0  0  0  0
   57.2705  160.9495   -0.5622 H   0  0  0  0  0  0  0  0  0  0  0  0
   57.7906  160.3754   -2.1771 H   0  0  0  0  0  0  0  0  0  0  0  0
   57.3424  159.2024   -0.9108 H   0  0  0  0  0  0  0  0  0  0  0  0
   56.2354  157.5676   -1.5777 H   0  0  0  0  0  0  0  0  0  0  0  0
   54.4908  157.9081   -1.4361 H   0  0  0  0  0  0  0  0  0  0  0  0
   54.6339  159.5221   -3.3246 H   0  0  0  0  0  0  0  0  0  0  0  0
   56.3858  159.2271   -3.4713 H   0  0  0  0  0  0  0  0  0  0  0  0
   52.2778  156.4007   -5.2019 H   0  0  0  0  0  0  0  0  0  0  0  0
   53.3507  155.8584   -6.4702 H   0  0  0  0  0  0  0  0  0  0  0  0
  1  4  1  0  0  0  0
  1  8  1  0  0  0  0
  1 10  2  0  0  0  0
  2  3  1  0  0  0  0
  2  4  1  0  0  0  0
  3  8  1  0  0  0  0
  4  9  1  0  0  0  0
  5 11  1  0  0  0  0
  6  7  1  0  0  0  0
  6  8  1  0  0  0  0
  7 11  1  0  0  0  0
  2 12  1  0  0  0  0
  2 13  1  0  0  0  0
  3 14  1  0  0  0  0
  3 15  1  0  0  0  0
  4 16  1  0  0  0  0
  5 17  1  0  0  0  0
  5 18  1  0  0  0  0
  5 19  1  0  0  0  0
  6 20  1  0  0  0  0
  6 21  1  0  0  0  0
  7 22  1  0  0  0  0
  7 23  1  0  0  0  0
  9 24  1  0  0  0  0
  9 25  1  0  0  0  0
M  END
> <FRED Chemgauss4 score>
-4.922448

$$$$
C85248400	P133393697
  -OEChem-05122015083D

 25 25  0     1  0  0  0  0  0999 V2000
   54.6297  151.8645   -6.1834 C   0  0  0  0  0  0  0  0  0  0  0  0
   55.1078  152.2209   -8.3005 C   0  0  0  0  0  0  0  0  0  0  0  0
   56.0464  153.1524   -7.5888 C   0  0  0  0  0  0  0  0  0  0  0  0
   55.5113  153.1052   -6.1716 C   0  0  1  0  0  0  0  0  0  0  0  0
   54.3065  154.5030   -4.4884 C   0  0  0  0  0  0  0  0  0  0  0  0
   53.3987  156.2846   -2.8915 C   0  0  0  0  0  0  0  0  0  0  0  0
   53.4270  155.7366   -4.3151 C   0  0  2  0  0  0  0  0  0  0  0  0
   54.4146  151.4458   -7.3984 N   0  0  0  0  0  0  0  0  0  0  0  0
   54.6923  154.3197   -5.9098 N   0  3  0  0  0  0  0  0  0  0  0  0
   54.2073  151.3984   -5.1076 O   0  5  0  0  0  0  0  0  0  0  0  0
   55.0287  152.1446   -9.5199 O   0  0  0  0  0  0  0  0  0  0  0  0
   52.8601  155.2870   -2.0289 O   0  0  0  0  0  0  0  0  0  0  0  0
   52.0968  155.4055   -4.7173 O   0  0  0  0  0  0  0  0  0  0  0  0
   57.0551  152.7309   -7.6445 H   0  0  0  0  0  0  0  0  0  0  0  0
   56.0309  154.1482   -8.0393 H   0  0  0  0  0  0  0  0  0  0  0  0
   56.2999  153.0735   -5.4138 H   0  0  0  0  0  0  0  0  0  0  0  0
   55.2359  154.5812   -3.9171 H   0  0  0  0  0  0  0  0  0  0  0  0
   53.7718  153.5919   -4.2026 H   0  0  0  0  0  0  0  0  0  0  0  0
   52.7570  157.1678   -2.8123 H   0  0  0  0  0  0  0  0  0  0  0  0
   54.4073  156.5265   -2.5426 H   0  0  0  0  0  0  0  0  0  0  0  0
   53.7751  156.5147   -5.0047 H   0  0  0  0  0  0  0  0  0  0  0  0
   55.2116  155.1496   -6.2305 H   0  0  0  0  0  0  0  0  0  0  0  0
   53.8423  154.2823   -6.4906 H   0  0  0  0  0  0  0  0  0  0  0  0
   52.8561  155.6658   -1.1360 H   0  0  0  0  0  0  0  0  0  0  0  0
   52.1515  155.1373   -5.6466 H   0  0  0  0  0  0  0  0  0  0  0  0
  1  4  1  0  0  0  0
  1  8  2  0  0  0  0
  1 10  1  0  0  0  0
  2  3  1  0  0  0  0
  2  8  1  0  0  0  0
  2 11  2  0  0  0  0
  3  4  1  0  0  0  0
  4  9  1  0  0  0  0
  5  7  1  0  0  0  0
  5  9  1  0  0  0  0
  6  7  1  0  0  0  0
  6 12  1  0  0  0  0
  7 13  1  0  0  0  0
  3 14  1  0  0  0  0
  3 15  1  0  0  0  0
  4 16  1  0  0  0  0
  5 17  1  0  0  0  0
  5 18  1  0  0  0  0
  6 19  1  0  0  0  0
  6 20  1  0  0  0  0
  7 21  1  0  0  0  0
  9 22  1  0  0  0  0
  9 23  1  0  0  0  0
 12 24  1  0  0  0  0
 13 25  1  0  0  0  0
M  CHG  2   9   1  10  -1
M  END
> <FRED Chemgauss4 score>
-4.921054

$$$$
C36946826	P54931962
  -OEChem-05122015083D

 28 29  0     1  0  0  0  0  0999 V2000
   55.1044  153.3188   -5.8010 C   0  0  0  0  0  0  0  0  0  0  0  0
   55.7430  154.1194   -6.7184 C   0  0  0  0  0  0  0  0  0  0  0  0
   55.6857  155.0625   -4.7275 C   0  0  0  0  0  0  0  0  0  0  0  0
   56.5165  159.3871   -1.2309 C   0  0  0  0  0  0  0  0  0  0  0  0
   55.7681  158.0836   -1.3532 C   0  0  0  0  0  0  0  0  0  0  0  0
   56.9099  159.6580   -2.6676 C   0  0  0  0  0  0  0  0  0  0  0  0
   55.0299  158.2805   -2.6659 C   0  0  2  0  0  0  0  0  0  0  0  0
   55.9312  156.1157   -3.6738 C   0  0  0  0  0  0  0  0  0  0  0  0
   54.6888  156.9810   -3.3690 C   0  0  1  0  0  0  0  0  0  0  0  0
   55.0718  153.9117   -4.5636 N   0  0  0  0  0  0  0  0  0  0  0  0
   56.1093  155.2329   -6.0162 N   0  0  0  0  0  0  0  0  0  0  0  0
   53.7673  156.2112   -2.5212 N   0  0  0  0  0  0  0  0  0  0  0  0
   55.8952  159.0725   -3.4970 O   0  0  0  0  0  0  0  0  0  0  0  0
   54.6652  152.3465   -5.9688 H   0  0  0  0  0  0  0  0  0  0  0  0
   55.9636  154.0038   -7.7696 H   0  0  0  0  0  0  0  0  0  0  0  0
   55.8399  160.1725   -0.8736 H   0  0  0  0  0  0  0  0  0  0  0  0
   57.3740  159.3413   -0.5547 H   0  0  0  0  0  0  0  0  0  0  0  0
   56.4828  157.2546   -1.4232 H   0  0  0  0  0  0  0  0  0  0  0  0
   55.0964  157.8877   -0.5128 H   0  0  0  0  0  0  0  0  0  0  0  0
   56.9936  160.7263   -2.8857 H   0  0  0  0  0  0  0  0  0  0  0  0
   57.8612  159.1751   -2.9153 H   0  0  0  0  0  0  0  0  0  0  0  0
   54.1155  158.8635   -2.5031 H   0  0  0  0  0  0  0  0  0  0  0  0
   56.2914  155.6411   -2.7511 H   0  0  0  0  0  0  0  0  0  0  0  0
   56.7609  156.7457   -4.0235 H   0  0  0  0  0  0  0  0  0  0  0  0
   54.1586  157.2077   -4.3060 H   0  0  0  0  0  0  0  0  0  0  0  0
   56.6056  156.0343   -6.3832 H   0  0  0  0  0  0  0  0  0  0  0  0
   53.7068  155.2331   -2.6785 H   0  0  0  0  0  0  0  0  0  0  0  0
   53.1080  156.7189   -1.9803 H   0  0  0  0  0  0  0  0  0  0  0  0
  1  2  2  0  0  0  0
  1 10  1  0  0  0  0
  2 11  1  0  0  0  0
  3  8  1  0  0  0  0
  3 10  2  0  0  0  0
  3 11  1  0  0  0  0
  4  5  1  0  0  0  0
  4  6  1  0  0  0  0
  5  7  1  0  0  0  0
  6 13  1  0  0  0  0
  7  9  1  0  0  0  0
  7 13  1  0  0  0  0
  8  9  1  0  0  0  0
  9 12  1  0  0  0  0
  1 14  1  0  0  0  0
  2 15  1  0  0  0  0
  4 16  1  0  0  0  0
  4 17  1  0  0  0  0
  5 18  1  0  0  0  0
  5 19  1  0  0  0  0
  6 20  1  0  0  0  0
  6 21  1  0  0  0  0
  7 22  1  0  0  0  0
  8 23  1  0  0  0  0
  8 24  1  0  0  0  0
  9 25  1  0  0  0  0
 11 26  1  0  0  0  0
 12 27  1  0  0  0  0
 12 28  1  0  0  0  0
M  END
> <FRED Chemgauss4 score>
-4.913317

$$$$
C85082709	P133149090
  -OEChem-05122015083D

 33 33  0     1  0  0  0  0  0999 V2000
   55.3529  152.9758   -6.2564 C   0  0  0  0  0  0  0  0  0  0  0  0
   55.0737  156.7184   -3.4777 C   0  0  0  0  0  0  0  0  0  0  0  0
   53.9162  155.4626   -5.2094 C   0  0  0  0  0  0  0  0  0  0  0  0
   53.6919  156.4597   -4.0753 C   0  0  2  0  0  0  0  0  0  0  0  0
   56.0558  156.1704   -4.5150 C   0  0  2  0  0  0  0  0  0  0  0  0
   57.5185  159.3841   -5.7072 C   0  0  0  0  0  0  0  0  0  0  0  0
   58.7789  157.4680   -4.9914 C   0  0  0  0  0  0  0  0  0  0  0  0
   55.8532  154.3976   -6.2238 C   0  0  0  0  0  0  0  0  0  0  0  0
   56.4510  157.2382   -5.5398 C   0  0  0  0  0  0  0  0  0  0  0  0
   55.3017  155.0255   -5.0360 N   0  0  2  0  0  0  0  0  0  0  0  0
   55.1929  152.4422   -7.5081 N   0  0  0  0  0  0  0  0  0  0  0  0
   57.4444  158.0980   -4.9870 N   0  0  0  0  0  0  0  0  0  0  0  0
   53.1477  157.6619   -4.6025 O   0  0  0  0  0  0  0  0  0  0  0  0
   55.0304  152.1040   -4.8678 S   0  0  0  0  0  0  0  0  0  0  0  0
   55.2279  157.7891   -3.2930 H   0  0  0  0  0  0  0  0  0  0  0  0
   55.1921  156.1982   -2.5207 H   0  0  0  0  0  0  0  0  0  0  0  0
   53.2222  154.6190   -5.0864 H   0  0  0  0  0  0  0  0  0  0  0  0
   53.7598  155.9052   -6.2002 H   0  0  0  0  0  0  0  0  0  0  0  0
   52.9972  156.0627   -3.3314 H   0  0  0  0  0  0  0  0  0  0  0  0
   56.9644  155.8264   -3.9814 H   0  0  0  0  0  0  0  0  0  0  0  0
   56.5380  159.8673   -5.7151 H   0  0  0  0  0  0  0  0  0  0  0  0
   57.8388  159.2211   -6.7398 H   0  0  0  0  0  0  0  0  0  0  0  0
   58.2351  160.0500   -5.2190 H   0  0  0  0  0  0  0  0  0  0  0  0
   58.7450  156.5124   -4.4617 H   0  0  0  0  0  0  0  0  0  0  0  0
   59.5057  158.1186   -4.4973 H   0  0  0  0  0  0  0  0  0  0  0  0
   59.1094  157.2897   -6.0182 H   0  0  0  0  0  0  0  0  0  0  0  0
   55.5411  154.9740   -7.0985 H   0  0  0  0  0  0  0  0  0  0  0  0
   56.9435  154.4216   -6.1378 H   0  0  0  0  0  0  0  0  0  0  0  0
   55.5749  157.8225   -5.7933 H   0  0  0  0  0  0  0  0  0  0  0  0
   56.8506  156.7536   -6.4219 H   0  0  0  0  0  0  0  0  0  0  0  0
   55.3980  152.9691   -8.3510 H   0  0  0  0  0  0  0  0  0  0  0  0
   54.8611  151.4916   -7.6337 H   0  0  0  0  0  0  0  0  0  0  0  0
   52.2755  157.4392   -4.9665 H   0  0  0  0  0  0  0  0  0  0  0  0
  1  8  1  0  0  0  0
  1 11  1  0  0  0  0
  1 14  2  0  0  0  0
  2  4  1  0  0  0  0
  2  5  1  0  0  0  0
  3  4  1  0  0  0  0
  3 10  1  0  0  0  0
  4 13  1  0  0  0  0
  5  9  1  0  0  0  0
  5 10  1  0  0  0  0
  6 12  1  0  0  0  0
  7 12  1  0  0  0  0
  8 10  1  0  0  0  0
  9 12  1  0  0  0  0
  2 15  1  0  0  0  0
  2 16  1  0  0  0  0
  3 17  1  0  0  0  0
  3 18  1  0  0  0  0
  4 19  1  0  0  0  0
  5 20  1  0  0  0  0
  6 21  1  0  0  0  0
  6 22  1  0  0  0  0
  6 23  1  0  0  0  0
  7 24  1  0  0  0  0
  7 25  1  0  0  0  0
  7 26  1  0  0  0  0
  8 27  1  0  0  0  0
  8 28  1  0  0  0  0
  9 29  1  0  0  0  0
  9 30  1  0  0  0  0
 11 31  1  0  0  0  0
 11 32  1  0  0  0  0
 13 33  1  0  0  0  0
M  END
> <FRED Chemgauss4 score>
-4.912740

$$$$
C87341085	P136651115
  -OEChem-05122015083D

 26 27  0     1  0  0  0  0  0999 V2000
   58.1018  159.3453   -4.2584 C   0  0  0  0  0  0  0  0  0  0  0  0
   58.0456  159.4793   -5.6256 C   0  0  0  0  0  0  0  0  0  0  0  0
   54.8166  156.3224   -1.9014 C   0  0  0  0  0  0  0  0  0  0  0  0
   54.2328  157.2313   -3.6875 C   0  0  0  0  0  0  0  0  0  0  0  0
   56.0316  159.4919   -4.7310 C   0  0  0  0  0  0  0  0  0  0  0  0
   54.0471  155.1113   -5.0423 C   0  0  0  0  0  0  0  0  0  0  0  0
   53.8361  158.1791   -4.7964 C   0  0  0  0  0  0  0  0  0  0  0  0
   54.5147  159.5627   -4.6862 C   0  0  1  0  0  0  0  0  0  0  0  0
   56.8448  159.3535   -3.7074 N   0  0  0  0  0  0  0  0  0  0  0  0
   54.5505  157.5431   -2.4525 N   0  0  0  0  0  0  0  0  0  0  0  0
   54.6835  155.2749   -2.7177 N   0  0  0  0  0  0  0  0  0  0  0  0
   56.7130  159.5716   -5.9136 N   0  0  0  0  0  0  0  0  0  0  0  0
   54.3095  155.8836   -3.8534 N   0  0  0  0  0  0  0  0  0  0  0  0
   54.0571  160.2374   -3.4639 N   0  0  0  0  0  0  0  0  0  0  0  0
   58.9833  159.2418   -3.6429 H   0  0  0  0  0  0  0  0  0  0  0  0
   58.8041  159.5167   -6.3938 H   0  0  0  0  0  0  0  0  0  0  0  0
   55.1167  156.1923   -0.8726 H   0  0  0  0  0  0  0  0  0  0  0  0
   54.9832  155.0217   -5.5998 H   0  0  0  0  0  0  0  0  0  0  0  0
   53.6745  154.1228   -4.7596 H   0  0  0  0  0  0  0  0  0  0  0  0
   53.2896  155.6208   -5.6444 H   0  0  0  0  0  0  0  0  0  0  0  0
   52.7439  158.2959   -4.7582 H   0  0  0  0  0  0  0  0  0  0  0  0
   54.0444  157.7155   -5.7697 H   0  0  0  0  0  0  0  0  0  0  0  0
   54.1738  160.1839   -5.5243 H   0  0  0  0  0  0  0  0  0  0  0  0
   56.3069  159.6819   -6.8334 H   0  0  0  0  0  0  0  0  0  0  0  0
   53.1239  160.0715   -3.1686 H   0  0  0  0  0  0  0  0  0  0  0  0
   54.6187  160.9745   -3.1075 H   0  0  0  0  0  0  0  0  0  0  0  0
  1  2  2  0  0  0  0
  1  9  1  0  0  0  0
  2 12  1  0  0  0  0
  3 10  1  0  0  0  0
  3 11  2  0  0  0  0
  4  7  1  0  0  0  0
  4 10  2  0  0  0  0
  4 13  1  0  0  0  0
  5  8  1  0  0  0  0
  5  9  2  0  0  0  0
  5 12  1  0  0  0  0
  6 13  1  0  0  0  0
  7  8  1  0  0  0  0
  8 14  1  0  0  0  0
 11 13  1  0  0  0  0
  1 15  1  0  0  0  0
  2 16  1  0  0  0  0
  3 17  1  0  0  0  0
  6 18  1  0  0  0  0
  6 19  1  0  0  0  0
  6 20  1  0  0  0  0
  7 21  1  0  0  0  0
  7 22  1  0  0  0  0
  8 23  1  0  0  0  0
 12 24  1  0  0  0  0
 14 25  1  0  0  0  0
 14 26  1  0  0  0  0
M  END
> <FRED Chemgauss4 score>
-4.911326

$$$$
C42450415	P64209324
  -OEChem-05122015083D

 29 28  0     1  0  0  0  0  0999 V2000
   55.1983  152.3793   -7.4436 C   0  0  0  0  0  0  0  0  0  0  0  0
   57.7880  156.8875   -6.8631 C   0  0  0  0  0  0  0  0  0  0  0  0
   55.1068  153.4740   -6.4661 C   0  0  0  0  0  0  0  0  0  0  0  0
   57.3837  156.2894   -5.5587 C   0  0  0  0  0  0  0  0  0  0  0  0
   56.2091  154.5090   -6.6645 C   0  0  0  0  0  0  0  0  0  0  0  0
   54.5318  156.9492   -3.5600 C   0  0  0  0  0  0  0  0  0  0  0  0
   55.0351  156.5030   -6.0178 C   0  0  0  0  0  0  0  0  0  0  0  0
   54.8768  157.5561   -4.9207 C   0  0  1  0  0  0  0  0  0  0  0  0
   55.2687  151.5145   -8.2140 N   0  0  0  0  0  0  0  0  0  0  0  0
   54.3955  157.9381   -2.5241 N   0  0  0  0  0  0  0  0  0  0  0  0
   56.0999  155.5866   -5.6734 N   0  0  2  0  0  0  0  0  0  0  0  0
   53.8496  158.4701   -5.3049 O   0  0  0  0  0  0  0  0  0  0  0  0
   57.9025  156.1131   -7.6293 H   0  0  0  0  0  0  0  0  0  0  0  0
   57.0498  157.6231   -7.2007 H   0  0  0  0  0  0  0  0  0  0  0  0
   58.7513  157.3999   -6.7540 H   0  0  0  0  0  0  0  0  0  0  0  0
   55.1904  153.0555   -5.4563 H   0  0  0  0  0  0  0  0  0  0  0  0
   54.1214  153.9494   -6.5361 H   0  0  0  0  0  0  0  0  0  0  0  0
   57.2712  157.0681   -4.7983 H   0  0  0  0  0  0  0  0  0  0  0  0
   58.1297  155.5667   -5.2153 H   0  0  0  0  0  0  0  0  0  0  0  0
   57.1868  154.0296   -6.5499 H   0  0  0  0  0  0  0  0  0  0  0  0
   56.1659  154.9372   -7.6721 H   0  0  0  0  0  0  0  0  0  0  0  0
   53.5899  156.3938   -3.6087 H   0  0  0  0  0  0  0  0  0  0  0  0
   55.3220  156.2653   -3.2339 H   0  0  0  0  0  0  0  0  0  0  0  0
   55.2814  156.9677   -6.9781 H   0  0  0  0  0  0  0  0  0  0  0  0
   54.1091  155.9310   -6.1361 H   0  0  0  0  0  0  0  0  0  0  0  0
   55.8044  158.1333   -4.8234 H   0  0  0  0  0  0  0  0  0  0  0  0
   54.5598  157.6718   -1.5666 H   0  0  0  0  0  0  0  0  0  0  0  0
   53.9466  158.8143   -2.7382 H   0  0  0  0  0  0  0  0  0  0  0  0
   53.8190  159.1524   -4.6174 H   0  0  0  0  0  0  0  0  0  0  0  0
  1  3  1  0  0  0  0
  1  9  3  0  0  0  0
  2  4  1  0  0  0  0
  3  5  1  0  0  0  0
  4 11  1  0  0  0  0
  5 11  1  0  0  0  0
  6  8  1  0  0  0  0
  6 10  1  0  0  0  0
  7  8  1  0  0  0  0
  7 11  1  0  0  0  0
  8 12  1  0  0  0  0
  2 13  1  0  0  0  0
  2 14  1  0  0  0  0
  2 15  1  0  0  0  0
  3 16  1  0  0  0  0
  3 17  1  0  0  0  0
  4 18  1  0  0  0  0
  4 19  1  0  0  0  0
  5 20  1  0  0  0  0
  5 21  1  0  0  0  0
  6 22  1  0  0  0  0
  6 23  1  0  0  0  0
  7 24  1  0  0  0  0
  7 25  1  0  0  0  0
  8 26  1  0  0  0  0
 10 27  1  0  0  0  0
 10 28  1  0  0  0  0
 12 29  1  0  0  0  0
M  END
> <FRED Chemgauss4 score>
-4.905936

$$$$
C82906217	P129602072
  -OEChem-05122015083D

 32 31  0     1  0  0  0  0  0999 V2000
   53.7699  156.7852   -6.1029 C   0  0  0  0  0  0  0  0  0  0  0  0
   55.4160  153.2066   -7.2737 C   0  0  0  0  0  0  0  0  0  0  0  0
   58.8217  156.7267   -5.3737 C   0  0  0  0  0  0  0  0  0  0  0  0
   56.6715  154.6578   -5.8280 C   0  0  0  0  0  0  0  0  0  0  0  0
   54.5571  156.2526   -3.7357 C   0  0  0  0  0  0  0  0  0  0  0  0
   54.3110  154.3692   -5.4850 C   0  0  0  0  0  0  0  0  0  0  0  0
   57.6288  155.3029   -6.8133 C   0  0  0  0  0  0  0  0  0  0  0  0
   53.8031  155.7379   -4.9818 C   0  0  2  0  0  0  0  0  0  0  0  0
   54.0284  157.4890   -3.1750 N   0  0  0  0  0  0  0  0  0  0  0  0
   55.3772  154.4338   -6.4755 N   0  0  2  0  0  0  0  0  0  0  0  0
   52.4397  155.5151   -4.5780 O   0  0  0  0  0  0  0  0  0  0  0  0
   58.8724  155.5510   -6.1701 O   0  0  0  0  0  0  0  0  0  0  0  0
   53.2310  156.4005   -6.9766 H   0  0  0  0  0  0  0  0  0  0  0  0
   54.7700  157.0875   -6.4272 H   0  0  0  0  0  0  0  0  0  0  0  0
   53.2273  157.6806   -5.7783 H   0  0  0  0  0  0  0  0  0  0  0  0
   54.4491  153.0414   -7.7560 H   0  0  0  0  0  0  0  0  0  0  0  0
   55.6424  152.3479   -6.6360 H   0  0  0  0  0  0  0  0  0  0  0  0
   56.1862  153.2823   -8.0461 H   0  0  0  0  0  0  0  0  0  0  0  0
   59.7914  156.8860   -4.8958 H   0  0  0  0  0  0  0  0  0  0  0  0
   58.0425  156.6205   -4.6148 H   0  0  0  0  0  0  0  0  0  0  0  0
   58.5893  157.5804   -6.0147 H   0  0  0  0  0  0  0  0  0  0  0  0
   57.0520  153.6926   -5.4789 H   0  0  0  0  0  0  0  0  0  0  0  0
   56.5129  155.3132   -4.9663 H   0  0  0  0  0  0  0  0  0  0  0  0
   54.5563  155.4744   -2.9620 H   0  0  0  0  0  0  0  0  0  0  0  0
   55.6127  156.4115   -3.9887 H   0  0  0  0  0  0  0  0  0  0  0  0
   54.6567  153.7723   -4.6312 H   0  0  0  0  0  0  0  0  0  0  0  0
   53.4696  153.8074   -5.9097 H   0  0  0  0  0  0  0  0  0  0  0  0
   57.2268  156.2625   -7.1529 H   0  0  0  0  0  0  0  0  0  0  0  0
   57.8041  154.6614   -7.6831 H   0  0  0  0  0  0  0  0  0  0  0  0
   54.6503  158.0798   -2.6638 H   0  0  0  0  0  0  0  0  0  0  0  0
   53.0373  157.6066   -3.1414 H   0  0  0  0  0  0  0  0  0  0  0  0
   52.1133  156.3714   -4.2731 H   0  0  0  0  0  0  0  0  0  0  0  0
  1  8  1  0  0  0  0
  2 10  1  0  0  0  0
  3 12  1  0  0  0  0
  4  7  1  0  0  0  0
  4 10  1  0  0  0  0
  5  8  1  0  0  0  0
  5  9  1  0  0  0  0
  6  8  1  0  0  0  0
  6 10  1  0  0  0  0
  7 12  1  0  0  0  0
  8 11  1  0  0  0  0
  1 13  1  0  0  0  0
  1 14  1  0  0  0  0
  1 15  1  0  0  0  0
  2 16  1  0  0  0  0
  2 17  1  0  0  0  0
  2 18  1  0  0  0  0
  3 19  1  0  0  0  0
  3 20  1  0  0  0  0
  3 21  1  0  0  0  0
  4 22  1  0  0  0  0
  4 23  1  0  0  0  0
  5 24  1  0  0  0  0
  5 25  1  0  0  0  0
  6 26  1  0  0  0  0
  6 27  1  0  0  0  0
  7 28  1  0  0  0  0
  7 29  1  0  0  0  0
  9 30  1  0  0  0  0
  9 31  1  0  0  0  0
 11 32  1  0  0  0  0
M  END
> <FRED Chemgauss4 score>
-4.902146

$$$$
C40545286	P61562841
  -OEChem-05122015083D

 24 24  0     1  0  0  0  0  0999 V2000
   56.1514  155.9765   -4.8936 C   0  0  0  0  0  0  0  0  0  0  0  0
   55.3326  155.4315   -6.0652 C   0  0  2  0  0  0  0  0  0  0  0  0
   53.8354  155.6599   -5.8567 C   0  0  1  0  0  0  0  0  0  0  0  0
   53.4244  155.1922   -4.4571 C   0  0  1  0  0  0  0  0  0  0  0  0
   54.3145  155.7963   -3.3674 C   0  0  1  0  0  0  0  0  0  0  0  0
   54.9103  157.7882   -2.2445 C   0  0  0  0  0  0  0  0  0  0  0  0
   55.6838  155.4819   -3.6345 O   0  0  0  0  0  0  0  0  0  0  0  0
   55.5961  154.0345   -6.1774 O   0  0  0  0  0  0  0  0  0  0  0  0
   53.5661  157.0504   -6.0228 O   0  0  0  0  0  0  0  0  0  0  0  0
   52.0567  155.5034   -4.2269 O   0  0  0  0  0  0  0  0  0  0  0  0
   54.6321  159.1657   -2.0391 O   0  0  0  0  0  0  0  0  0  0  0  0
   54.0952  157.1993   -3.2512 O   0  0  0  0  0  0  0  0  0  0  0  0
   57.2186  155.7393   -5.0072 H   0  0  0  0  0  0  0  0  0  0  0  0
   56.0866  157.0716   -4.8727 H   0  0  0  0  0  0  0  0  0  0  0  0
   55.6610  155.9010   -7.0019 H   0  0  0  0  0  0  0  0  0  0  0  0
   53.2730  155.1248   -6.6212 H   0  0  0  0  0  0  0  0  0  0  0  0
   53.4780  154.0665   -4.4159 H   0  0  0  0  0  0  0  0  0  0  0  0
   54.0437  155.3413   -2.3813 H   0  0  0  0  0  0  0  0  0  0  0  0
   55.9756  157.6451   -2.4596 H   0  0  0  0  0  0  0  0  0  0  0  0
   54.6881  157.2695   -1.3075 H   0  0  0  0  0  0  0  0  0  0  0  0
   55.0679  153.7114   -6.9244 H   0  0  0  0  0  0  0  0  0  0  0  0
   53.8367  157.2789   -6.9258 H   0  0  0  0  0  0  0  0  0  0  0  0
   51.5545  155.0349   -4.9091 H   0  0  0  0  0  0  0  0  0  0  0  0
   55.2312  159.4792   -1.3407 H   0  0  0  0  0  0  0  0  0  0  0  0
  1  2  1  0  0  0  0
  1  7  1  0  0  0  0
  2  3  1  0  0  0  0
  2  8  1  0  0  0  0
  3  4  1  0  0  0  0
  3  9  1  0  0  0  0
  4  5  1  0  0  0  0
  4 10  1  0  0  0  0
  5  7  1  0  0  0  0
  5 12  1  0  0  0  0
  6 11  1  0  0  0  0
  6 12  1  0  0  0  0
  1 13  1  0  0  0  0
  1 14  1  0  0  0  0
  2 15  1  0  0  0  0
  3 16  1  0  0  0  0
  4 17  1  0  0  0  0
  5 18  1  0  0  0  0
  6 19  1  0  0  0  0
  6 20  1  0  0  0  0
  8 21  1  0  0  0  0
  9 22  1  0  0  0  0
 10 23  1  0  0  0  0
 11 24  1  0  0  0  0
M  END
> <FRED Chemgauss4 score>
-4.898460

$$$$
C69638109	P107234400
  -OEChem-05122015083D

 22 22  0     1  0  0  0  0  0999 V2000
   56.4572  157.6907   -3.3474 C   0  0  0  0  0  0  0  0  0  0  0  0
   56.9058  158.9936   -3.2740 C   0  0  0  0  0  0  0  0  0  0  0  0
   55.1090  159.5946   -2.0179 C   0  0  0  0  0  0  0  0  0  0  0  0
   55.2707  157.4300   -2.6928 C   0  0  0  0  0  0  0  0  0  0  0  0
   52.6962  154.5641   -3.4214 C   0  0  0  0  0  0  0  0  0  0  0  0
   54.6976  156.0272   -2.7168 C   0  0  2  0  0  0  0  0  0  0  0  0
   53.2867  155.9712   -3.3387 C   0  0  1  0  0  0  0  0  0  0  0  0
   56.2544  159.9747   -2.6154 N   0  0  0  0  0  0  0  0  0  0  0  0
   54.5677  158.3615   -2.0157 N   0  0  0  0  0  0  0  0  0  0  0  0
   53.3207  156.5586   -4.6621 N   0  0  0  0  0  0  0  0  0  0  0  0
   54.6865  155.4683   -1.4034 O   0  0  0  0  0  0  0  0  0  0  0  0
   57.0076  156.9297   -3.8855 H   0  0  0  0  0  0  0  0  0  0  0  0
   57.8292  159.2944   -3.7574 H   0  0  0  0  0  0  0  0  0  0  0  0
   54.5657  160.3629   -1.4817 H   0  0  0  0  0  0  0  0  0  0  0  0
   53.3424  153.8910   -3.9920 H   0  0  0  0  0  0  0  0  0  0  0  0
   51.7208  154.5874   -3.9207 H   0  0  0  0  0  0  0  0  0  0  0  0
   52.5385  154.1322   -2.4273 H   0  0  0  0  0  0  0  0  0  0  0  0
   55.3835  155.4004   -3.3024 H   0  0  0  0  0  0  0  0  0  0  0  0
   52.6017  156.6015   -2.7588 H   0  0  0  0  0  0  0  0  0  0  0  0
   53.9362  157.3322   -4.8293 H   0  0  0  0  0  0  0  0  0  0  0  0
   52.5959  156.3205   -5.3128 H   0  0  0  0  0  0  0  0  0  0  0  0
   54.3117  154.5785   -1.4875 H   0  0  0  0  0  0  0  0  0  0  0  0
  1  2  2  0  0  0  0
  1  4  1  0  0  0  0
  2  8  1  0  0  0  0
  3  8  2  0  0  0  0
  3  9  1  0  0  0  0
  4  6  1  0  0  0  0
  4  9  2  0  0  0  0
  5  7  1  0  0  0  0
  6  7  1  0  0  0  0
  6 11  1  0  0  0  0
  7 10  1  0  0  0  0
  1 12  1  0  0  0  0
  2 13  1  0  0  0  0
  3 14  1  0  0  0  0
  5 15  1  0  0  0  0
  5 16  1  0  0  0  0
  5 17  1  0  0  0  0
  6 18  1  0  0  0  0
  7 19  1  0  0  0  0
 10 20  1  0  0  0  0
 10 21  1  0  0  0  0
 11 22  1  0  0  0  0
M  END
> <FRED Chemgauss4 score>
-4.898122

$$$$
C39088413	P59218791
  -OEChem-05122015083D

 21 21  0     1  0  0  0  0  0999 V2000
   56.5009  154.7045   -5.9644 C   0  0  0  0  0  0  0  0  0  0  0  0
   54.0909  155.0733   -5.3620 C   0  0  1  0  0  0  0  0  0  0  0  0
   55.0801  154.8012   -6.4980 C   0  0  2  0  0  0  0  0  0  0  0  0
   54.7797  155.7970   -4.1862 C   0  0  2  0  0  0  0  0  0  0  0  0
   53.8071  156.6088   -3.3304 C   0  0  0  0  0  0  0  0  0  0  0  0
   56.9397  155.9017   -5.2371 N   0  0  0  0  0  0  0  0  0  0  0  0
   55.8282  156.6775   -4.7188 N   0  0  0  0  0  0  0  0  0  0  0  0
   53.0099  155.8435   -5.8828 O   0  0  0  0  0  0  0  0  0  0  0  0
   54.4049  156.8248   -2.0688 O   0  0  0  0  0  0  0  0  0  0  0  0
   54.7484  153.6193   -7.0871 F   0  0  0  0  0  0  0  0  0  0  0  0
   56.6108  153.8022   -5.3265 H   0  0  0  0  0  0  0  0  0  0  0  0
   57.1903  154.5269   -6.8131 H   0  0  0  0  0  0  0  0  0  0  0  0
   53.6725  154.1185   -5.0235 H   0  0  0  0  0  0  0  0  0  0  0  0
   54.9994  155.5748   -7.2773 H   0  0  0  0  0  0  0  0  0  0  0  0
   55.2341  155.0679   -3.5544 H   0  0  0  0  0  0  0  0  0  0  0  0
   52.8819  156.0524   -3.2076 H   0  0  0  0  0  0  0  0  0  0  0  0
   53.6108  157.5630   -3.8117 H   0  0  0  0  0  0  0  0  0  0  0  0
   57.5223  155.6071   -4.4397 H   0  0  0  0  0  0  0  0  0  0  0  0
   55.4441  157.2353   -5.4853 H   0  0  0  0  0  0  0  0  0  0  0  0
   52.6034  155.3125   -6.5859 H   0  0  0  0  0  0  0  0  0  0  0  0
   53.7755  157.3418   -1.5358 H   0  0  0  0  0  0  0  0  0  0  0  0
  1  3  1  0  0  0  0
  1  6  1  0  0  0  0
  2  3  1  0  0  0  0
  2  4  1  0  0  0  0
  2  8  1  0  0  0  0
  3 10  1  0  0  0  0
  4  5  1  0  0  0  0
  4  7  1  0  0  0  0
  5  9  1  0  0  0  0
  6  7  1  0  0  0  0
  1 11  1  0  0  0  0
  1 12  1  0  0  0  0
  2 13  1  0  0  0  0
  3 14  1  0  0  0  0
  4 15  1  0  0  0  0
  5 16  1  0  0  0  0
  5 17  1  0  0  0  0
  6 18  1  0  0  0  0
  7 19  1  0  0  0  0
  8 20  1  0  0  0  0
  9 21  1  0  0  0  0
M  END
> <FRED Chemgauss4 score>
-4.889297

$$$$
C85164882	P133260509
  -OEChem-05122015083D

 29 29  0     1  0  0  0  0  0999 V2000
   60.2281  156.0917   -8.0955 C   0  0  0  0  0  0  0  0  0  0  0  0
   59.5131  156.7622   -9.2614 C   0  0  0  0  0  0  0  0  0  0  0  0
   58.0938  158.0024   -7.8256 C   0  0  0  0  0  0  0  0  0  0  0  0
   59.3076  156.0104   -6.8706 C   0  0  2  0  0  0  0  0  0  0  0  0
   58.7233  157.4025   -6.5654 C   0  0  2  0  0  0  0  0  0  0  0  0
   55.2181  155.7757   -5.1640 C   0  0  0  0  0  0  0  0  0  0  0  0
   55.2972  155.7443   -3.6430 C   0  0  0  0  0  0  0  0  0  0  0  0
   56.6059  155.8572   -5.7876 C   0  0  0  0  0  0  0  0  0  0  0  0
   60.0663  155.4758   -5.7393 N   0  0  0  0  0  0  0  0  0  0  0  0
   59.0504  158.0584   -8.8868 O   0  0  0  0  0  0  0  0  0  0  0  0
   53.9808  155.6539   -3.1160 O   0  0  0  0  0  0  0  0  0  0  0  0
   57.4631  157.3490   -5.2436 S   0  0  0  0  0  0  0  0  0  0  0  0
   60.5096  155.0783   -8.3912 H   0  0  0  0  0  0  0  0  0  0  0  0
   61.1508  156.6263   -7.8614 H   0  0  0  0  0  0  0  0  0  0  0  0
   60.1575  156.8448  -10.1432 H   0  0  0  0  0  0  0  0  0  0  0  0
   58.6398  156.1694   -9.5490 H   0  0  0  0  0  0  0  0  0  0  0  0
   57.2443  157.4096   -8.1675 H   0  0  0  0  0  0  0  0  0  0  0  0
   57.7253  159.0118   -7.6334 H   0  0  0  0  0  0  0  0  0  0  0  0
   58.4954  155.2908   -7.0910 H   0  0  0  0  0  0  0  0  0  0  0  0
   59.5099  158.0798   -6.2093 H   0  0  0  0  0  0  0  0  0  0  0  0
   54.6872  154.8798   -5.5112 H   0  0  0  0  0  0  0  0  0  0  0  0
   54.6023  156.6314   -5.4702 H   0  0  0  0  0  0  0  0  0  0  0  0
   55.8701  154.8772   -3.2995 H   0  0  0  0  0  0  0  0  0  0  0  0
   55.7646  156.6560   -3.2574 H   0  0  0  0  0  0  0  0  0  0  0  0
   56.5363  155.8792   -6.8799 H   0  0  0  0  0  0  0  0  0  0  0  0
   57.2083  154.9885   -5.5037 H   0  0  0  0  0  0  0  0  0  0  0  0
   60.7685  154.8018   -5.9340 H   0  0  0  0  0  0  0  0  0  0  0  0
   59.7160  155.6507   -4.8271 H   0  0  0  0  0  0  0  0  0  0  0  0
   54.0663  155.6360   -2.1489 H   0  0  0  0  0  0  0  0  0  0  0  0
  1  2  1  0  0  0  0
  1  4  1  0  0  0  0
  2 10  1  0  0  0  0
  3  5  1  0  0  0  0
  3 10  1  0  0  0  0
  4  5  1  0  0  0  0
  4  9  1  0  0  0  0
  5 12  1  0  0  0  0
  6  7  1  0  0  0  0
  6  8  1  0  0  0  0
  7 11  1  0  0  0  0
  8 12  1  0  0  0  0
  1 13  1  0  0  0  0
  1 14  1  0  0  0  0
  2 15  1  0  0  0  0
  2 16  1  0  0  0  0
  3 17  1  0  0  0  0
  3 18  1  0  0  0  0
  4 19  1  0  0  0  0
  5 20  1  0  0  0  0
  6 21  1  0  0  0  0
  6 22  1  0  0  0  0
  7 23  1  0  0  0  0
  7 24  1  0  0  0  0
  8 25  1  0  0  0  0
  8 26  1  0  0  0  0
  9 27  1  0  0  0  0
  9 28  1  0  0  0  0
 11 29  1  0  0  0  0
M  END
> <FRED Chemgauss4 score>
-4.889101

$$$$
C83812008	P131108696
  -OEChem-05122015083D

 18 18  0     1  0  0  0  0  0999 V2000
   54.9988  157.7746   -2.7277 C   0  0  0  0  0  0  0  0  0  0  0  0
   53.7319  156.4261   -3.6529 C   0  0  0  0  0  0  0  0  0  0  0  0
   57.1277  159.1016   -2.3924 C   0  0  0  0  0  0  0  0  0  0  0  0
   55.7181  158.7993   -1.8771 C   0  0  1  0  0  0  0  0  0  0  0  0
   53.7916  157.2861   -2.5952 N   0  0  0  0  0  0  0  0  0  0  0  0
   54.8282  156.3652   -4.4147 N   0  0  0  0  0  0  0  0  0  0  0  0
   52.5919  155.7141   -3.8460 N   0  0  0  0  0  0  0  0  0  0  0  0
   54.9407  160.0156   -1.7718 N   0  0  0  0  0  0  0  0  0  0  0  0
   55.6867  157.2780   -3.7892 O   0  0  0  0  0  0  0  0  0  0  0  0
   57.0407  159.6439   -3.7062 O   0  0  0  0  0  0  0  0  0  0  0  0
   57.6246  159.8450   -1.7594 H   0  0  0  0  0  0  0  0  0  0  0  0
   57.7511  158.2017   -2.4325 H   0  0  0  0  0  0  0  0  0  0  0  0
   55.7985  158.4275   -0.8478 H   0  0  0  0  0  0  0  0  0  0  0  0
   51.8012  155.7726   -3.1939 H   0  0  0  0  0  0  0  0  0  0  0  0
   52.5099  155.0190   -4.5970 H   0  0  0  0  0  0  0  0  0  0  0  0
   55.4096  160.8676   -1.5262 H   0  0  0  0  0  0  0  0  0  0  0  0
   53.9402  159.9472   -1.7439 H   0  0  0  0  0  0  0  0  0  0  0  0
   57.9500  159.8204   -3.9943 H   0  0  0  0  0  0  0  0  0  0  0  0
  1  4  1  0  0  0  0
  1  5  2  0  0  0  0
  1  9  1  0  0  0  0
  2  5  1  0  0  0  0
  2  6  2  0  0  0  0
  2  7  1  0  0  0  0
  3  4  1  0  0  0  0
  3 10  1  0  0  0  0
  4  8  1  0  0  0  0
  6  9  1  0  0  0  0
  3 11  1  0  0  0  0
  3 12  1  0  0  0  0
  4 13  1  0  0  0  0
  7 14  1  0  0  0  0
  7 15  1  0  0  0  0
  8 16  1  0  0  0  0
  8 17  1  0  0  0  0
 10 18  1  0  0  0  0
M  END
> <FRED Chemgauss4 score>
-4.882439

$$$$
C39950026	P97167807
  -OEChem-05122015083D

 46 49  0     1  0  0  0  0  0999 V2000
   51.4080  163.7894   -8.1087 C   0  0  0  0  0  0  0  0  0  0  0  0
   50.4186  162.8938   -8.2276 C   0  0  0  0  0  0  0  0  0  0  0  0
   52.7130  163.4489   -7.5843 C   0  0  0  0  0  0  0  0  0  0  0  0
   56.9040  161.3385   -3.8558 C   0  0  0  0  0  0  0  0  0  0  0  0
   56.0048  160.2022   -4.0144 C   0  0  0  0  0  0  0  0  0  0  0  0
   56.5986  158.9439   -0.6786 C   0  0  0  0  0  0  0  0  0  0  0  0
   57.8875  161.3232   -2.9368 C   0  0  0  0  0  0  0  0  0  0  0  0
   53.0817  162.1710   -7.4083 C   0  0  0  0  0  0  0  0  0  0  0  0
   57.6608  159.6755    0.0155 C   0  0  0  0  0  0  0  0  0  0  0  0
   55.9451  159.2307   -3.0836 C   0  0  0  0  0  0  0  0  0  0  0  0
   56.8191  159.3102   -1.9395 C   0  0  0  0  0  0  0  0  0  0  0  0
   50.7265  161.5075   -7.8199 C   0  0  0  0  0  0  0  0  0  0  0  0
   54.9668  158.1426   -3.2647 C   0  0  0  0  0  0  0  0  0  0  0  0
   52.9953  158.8250   -6.9623 C   0  0  0  0  0  0  0  0  0  0  0  0
   50.5912  159.4403   -7.0533 C   0  0  0  0  0  0  0  0  0  0  0  0
   58.0868  160.1068   -2.0756 C   0  0  2  0  0  0  0  0  0  0  0  0
   52.1675  161.0446   -7.7737 C   0  0  2  0  0  0  0  0  0  0  0  0
   52.0084  159.9293   -6.7569 C   0  0  2  0  0  0  0  0  0  0  0  0
   54.3371  156.3212   -4.8274 C   0  0  0  0  0  0  0  0  0  0  0  0
   53.6467  156.5638   -6.1590 C   0  0  0  0  0  0  0  0  0  0  0  0
   58.4777  160.4101   -0.6822 N   0  0  0  0  0  0  0  0  0  0  0  0
   49.8298  160.6335   -7.4816 N   0  0  0  0  0  0  0  0  0  0  0  0
   55.1647  157.4303   -4.4352 N   0  0  0  0  0  0  0  0  0  0  0  0
   52.8074  157.7400   -6.1274 N   0  0  0  0  0  0  0  0  0  0  0  0
   54.0945  157.9409   -2.4270 O   0  0  0  0  0  0  0  0  0  0  0  0
   53.8657  158.9436   -7.8167 O   0  0  0  0  0  0  0  0  0  0  0  0
   51.2347  164.8290   -8.3677 H   0  0  0  0  0  0  0  0  0  0  0  0
   49.4217  163.1546   -8.5566 H   0  0  0  0  0  0  0  0  0  0  0  0
   53.3905  164.2604   -7.3431 H   0  0  0  0  0  0  0  0  0  0  0  0
   56.7640  162.1918   -4.5099 H   0  0  0  0  0  0  0  0  0  0  0  0
   55.3632  160.2045   -4.8899 H   0  0  0  0  0  0  0  0  0  0  0  0
   55.7547  158.4535   -0.2300 H   0  0  0  0  0  0  0  0  0  0  0  0
   58.5701  162.1619   -2.8488 H   0  0  0  0  0  0  0  0  0  0  0  0
   54.0740  161.9415   -7.0334 H   0  0  0  0  0  0  0  0  0  0  0  0
   57.6923  159.6308    1.1138 H   0  0  0  0  0  0  0  0  0  0  0  0
   50.5575  158.6805   -7.8432 H   0  0  0  0  0  0  0  0  0  0  0  0
   50.1362  159.0117   -6.1538 H   0  0  0  0  0  0  0  0  0  0  0  0
   58.8779  159.4916   -2.5252 H   0  0  0  0  0  0  0  0  0  0  0  0
   52.4467  160.6544   -8.7608 H   0  0  0  0  0  0  0  0  0  0  0  0
   52.0855  160.2955   -5.7262 H   0  0  0  0  0  0  0  0  0  0  0  0
   54.9763  155.4334   -4.8648 H   0  0  0  0  0  0  0  0  0  0  0  0
   53.5924  156.1814   -4.0378 H   0  0  0  0  0  0  0  0  0  0  0  0
   54.3890  156.7199   -6.9478 H   0  0  0  0  0  0  0  0  0  0  0  0
   53.0142  155.7157   -6.4406 H   0  0  0  0  0  0  0  0  0  0  0  0
   55.9322  157.7045   -5.0473 H   0  0  0  0  0  0  0  0  0  0  0  0
   52.0428  157.7706   -5.4596 H   0  0  0  0  0  0  0  0  0  0  0  0
  1  2  2  0  0  0  0
  1  3  1  0  0  0  0
  2 12  1  0  0  0  0
  3  8  2  0  0  0  0
  4  5  1  0  0  0  0
  4  7  2  0  0  0  0
  5 10  2  0  0  0  0
  6  9  1  0  0  0  0
  6 11  2  0  0  0  0
  7 16  1  0  0  0  0
  8 17  1  0  0  0  0
  9 21  2  0  0  0  0
 10 11  1  0  0  0  0
 10 13  1  0  0  0  0
 11 16  1  0  0  0  0
 12 17  1  0  0  0  0
 12 22  2  0  0  0  0
 13 23  1  0  0  0  0
 13 25  2  0  0  0  0
 14 18  1  0  0  0  0
 14 24  1  0  0  0  0
 14 26  2  0  0  0  0
 15 18  1  0  0  0  0
 15 22  1  0  0  0  0
 16 21  1  0  0  0  0
 17 18  1  0  0  0  0
 19 20  1  0  0  0  0
 19 23  1  0  0  0  0
 20 24  1  0  0  0  0
  1 27  1  0  0  0  0
  2 28  1  0  0  0  0
  3 29  1  0  0  0  0
  4 30  1  0  0  0  0
  5 31  1  0  0  0  0
  6 32  1  0  0  0  0
  7 33  1  0  0  0  0
  8 34  1  0  0  0  0
  9 35  1  0  0  0  0
 15 36  1  0  0  0  0
 15 37  1  0  0  0  0
 16 38  1  0  0  0  0
 17 39  1  0  0  0  0
 18 40  1  0  0  0  0
 19 41  1  0  0  0  0
 19 42  1  0  0  0  0
 20 43  1  0  0  0  0
 20 44  1  0  0  0  0
 23 45  1  0  0  0  0
 24 46  1  0  0  0  0
M  END
> <FRED Chemgauss4 score>
-4.876612

$$$$
C01843030	P156189276
  -OEChem-05122015083D

 17 17  0     1  0  0  0  0  0999 V2000
   53.1631  155.7489   -3.0367 C   0  0  0  0  0  0  0  0  0  0  0  0
   53.2979  156.0380   -5.1982 C   0  0  0  0  0  0  0  0  0  0  0  0
   55.6780  158.3102   -2.9273 C   0  0  0  0  0  0  0  0  0  0  0  0
   54.4990  156.3549   -3.3990 C   0  0  1  0  0  0  0  0  0  0  0  0
   54.4548  156.5160   -4.8729 N   0  0  0  0  0  0  0  0  0  0  0  0
   54.6009  157.6374   -2.7155 N   0  0  0  0  0  0  0  0  0  0  0  0
   52.5029  155.5765   -4.2163 N   0  0  0  0  0  0  0  0  0  0  0  0
   56.7743  158.0346   -3.6970 N   0  0  0  0  0  0  0  0  0  0  0  0
   52.7727  155.4905   -1.9099 O   0  0  0  0  0  0  0  0  0  0  0  0
   52.8237  155.9724   -6.4566 O   0  0  0  0  0  0  0  0  0  0  0  0
   55.7977  159.5107   -2.3016 O   0  0  0  0  0  0  0  0  0  0  0  0
   55.3105  155.6804   -3.1111 H   0  0  0  0  0  0  0  0  0  0  0  0
   51.5809  155.1740   -4.3325 H   0  0  0  0  0  0  0  0  0  0  0  0
   56.8528  157.1789   -4.2354 H   0  0  0  0  0  0  0  0  0  0  0  0
   57.5492  158.6864   -3.7536 H   0  0  0  0  0  0  0  0  0  0  0  0
   53.4608  156.3311   -7.1008 H   0  0  0  0  0  0  0  0  0  0  0  0
   56.6411  159.9429   -2.5220 H   0  0  0  0  0  0  0  0  0  0  0  0
  1  4  1  0  0  0  0
  1  7  1  0  0  0  0
  1  9  2  0  0  0  0
  2  5  2  0  0  0  0
  2  7  1  0  0  0  0
  2 10  1  0  0  0  0
  3  6  2  0  0  0  0
  3  8  1  0  0  0  0
  3 11  1  0  0  0  0
  4  5  1  0  0  0  0
  4  6  1  0  0  0  0
  4 12  1  0  0  0  0
  7 13  1  0  0  0  0
  8 14  1  0  0  0  0
  8 15  1  0  0  0  0
 10 16  1  0  0  0  0
 11 17  1  0  0  0  0
M  END
> <FRED Chemgauss4 score>
-4.859574

$$$$
C83574386	P130729171
  -OEChem-05122015083D

 24 24  0     1  0  0  0  0  0999 V2000
   56.7120  158.1852   -3.1101 C   0  0  0  0  0  0  0  0  0  0  0  0
   55.6155  158.4297   -2.2990 C   0  0  0  0  0  0  0  0  0  0  0  0
   54.3055  156.9512   -3.4719 C   0  0  0  0  0  0  0  0  0  0  0  0
   56.5635  157.2706   -4.1468 C   0  0  0  0  0  0  0  0  0  0  0  0
   55.3405  156.6375   -4.3381 C   0  0  0  0  0  0  0  0  0  0  0  0
   57.7265  156.9843   -5.0378 C   0  0  0  0  0  0  0  0  0  0  0  0
   53.6945  155.0654   -5.4901 C   0  0  0  0  0  0  0  0  0  0  0  0
   55.1235  155.6296   -5.4534 C   0  0  2  0  0  0  0  0  0  0  0  0
   54.4118  157.8342   -2.4538 N   0  0  0  0  0  0  0  0  0  0  0  0
   52.7789  155.9534   -6.1578 N   0  0  0  0  0  0  0  0  0  0  0  0
   56.0933  154.5318   -5.3588 N   0  0  0  0  0  0  0  0  0  0  0  0
   57.6527  158.6959   -2.9349 H   0  0  0  0  0  0  0  0  0  0  0  0
   55.6795  159.1344   -1.4764 H   0  0  0  0  0  0  0  0  0  0  0  0
   53.3278  156.4895   -3.5704 H   0  0  0  0  0  0  0  0  0  0  0  0
   58.3170  156.1519   -4.6371 H   0  0  0  0  0  0  0  0  0  0  0  0
   57.3957  156.7219   -6.0505 H   0  0  0  0  0  0  0  0  0  0  0  0
   58.3791  157.8613   -5.1330 H   0  0  0  0  0  0  0  0  0  0  0  0
   53.6679  154.1202   -6.0442 H   0  0  0  0  0  0  0  0  0  0  0  0
   53.2934  154.8741   -4.4892 H   0  0  0  0  0  0  0  0  0  0  0  0
   55.3084  156.1318   -6.4120 H   0  0  0  0  0  0  0  0  0  0  0  0
   51.7974  155.8991   -5.9399 H   0  0  0  0  0  0  0  0  0  0  0  0
   53.0939  156.4642   -6.9663 H   0  0  0  0  0  0  0  0  0  0  0  0
   57.0054  154.7488   -5.0302 H   0  0  0  0  0  0  0  0  0  0  0  0
   55.8678  153.6766   -5.8113 H   0  0  0  0  0  0  0  0  0  0  0  0
  1  2  2  0  0  0  0
  1  4  1  0  0  0  0
  2  9  1  0  0  0  0
  3  5  1  0  0  0  0
  3  9  2  0  0  0  0
  4  5  2  0  0  0  0
  4  6  1  0  0  0  0
  5  8  1  0  0  0  0
  7  8  1  0  0  0  0
  7 10  1  0  0  0  0
  8 11  1  0  0  0  0
  1 12  1  0  0  0  0
  2 13  1  0  0  0  0
  3 14  1  0  0  0  0
  6 15  1  0  0  0  0
  6 16  1  0  0  0  0
  6 17  1  0  0  0  0
  7 18  1  0  0  0  0
  7 19  1  0  0  0  0
  8 20  1  0  0  0  0
 10 21  1  0  0  0  0
 10 22  1  0  0  0  0
 11 23  1  0  0  0  0
 11 24  1  0  0  0  0
M  END
> <FRED Chemgauss4 score>
-4.859155

$$$$
C61842909	P94744252
  -OEChem-05122015083D

 23 23  0     0  0  0  0  0  0999 V2000
   55.7818  155.7193   -5.7925 C   0  0  0  0  0  0  0  0  0  0  0  0
   55.2274  156.0967   -3.8158 C   0  0  0  0  0  0  0  0  0  0  0  0
   54.4168  151.8290   -8.6307 C   0  0  0  0  0  0  0  0  0  0  0  0
   54.9638  156.6923   -2.5089 C   0  0  0  0  0  0  0  0  0  0  0  0
   55.1496  153.2354   -6.0557 C   0  0  0  0  0  0  0  0  0  0  0  0
   55.9012  153.1515   -7.3775 C   0  0  0  0  0  0  0  0  0  0  0  0
   55.7538  156.7083   -4.8514 N   0  0  0  0  0  0  0  0  0  0  0  0
   54.9580  154.8028   -4.1367 N   0  0  0  0  0  0  0  0  0  0  0  0
   55.3058  154.5343   -5.4044 N   0  0  0  0  0  0  0  0  0  0  0  0
   53.5588  156.9814   -2.2772 N   0  0  0  0  0  0  0  0  0  0  0  0
   55.6771  151.8821   -7.9759 O   0  0  0  0  0  0  0  0  0  0  0  0
   56.1672  155.8890   -6.7902 H   0  0  0  0  0  0  0  0  0  0  0  0
   54.2790  150.8415   -9.0778 H   0  0  0  0  0  0  0  0  0  0  0  0
   54.3742  152.6001   -9.4040 H   0  0  0  0  0  0  0  0  0  0  0  0
   53.6273  152.0076   -7.8969 H   0  0  0  0  0  0  0  0  0  0  0  0
   55.2847  156.0397   -1.6694 H   0  0  0  0  0  0  0  0  0  0  0  0
   55.5010  157.6516   -2.3527 H   0  0  0  0  0  0  0  0  0  0  0  0
   55.4981  152.4695   -5.3532 H   0  0  0  0  0  0  0  0  0  0  0  0
   54.0760  153.0823   -6.2146 H   0  0  0  0  0  0  0  0  0  0  0  0
   55.5277  153.9169   -8.0650 H   0  0  0  0  0  0  0  0  0  0  0  0
   56.9786  153.2919   -7.2433 H   0  0  0  0  0  0  0  0  0  0  0  0
   53.3224  157.7254   -1.6516 H   0  0  0  0  0  0  0  0  0  0  0  0
   52.8788  156.3130   -2.5801 H   0  0  0  0  0  0  0  0  0  0  0  0
  1  7  2  0  0  0  0
  1  9  1  0  0  0  0
  2  4  1  0  0  0  0
  2  7  1  0  0  0  0
  2  8  2  0  0  0  0
  3 11  1  0  0  0  0
  4 10  1  0  0  0  0
  5  6  1  0  0  0  0
  5  9  1  0  0  0  0
  6 11  1  0  0  0  0
  8  9  1  0  0  0  0
  1 12  1  0  0  0  0
  3 13  1  0  0  0  0
  3 14  1  0  0  0  0
  3 15  1  0  0  0  0
  4 16  1  0  0  0  0
  4 17  1  0  0  0  0
  5 18  1  0  0  0  0
  5 19  1  0  0  0  0
  6 20  1  0  0  0  0
  6 21  1  0  0  0  0
 10 22  1  0  0  0  0
 10 23  1  0  0  0  0
M  END
> <FRED Chemgauss4 score>
-4.857966

$$$$
C62939634	P96575290
  -OEChem-05122015083D

 25 26  0     0  0  0  0  0  0999 V2000
   55.8514  152.8099   -5.3077 C   0  0  0  0  0  0  0  0  0  0  0  0
   56.7202  153.4274   -6.1763 C   0  0  0  0  0  0  0  0  0  0  0  0
   55.8372  154.8667   -4.7602 C   0  0  0  0  0  0  0  0  0  0  0  0
   57.4265  155.7521   -6.4133 C   0  0  0  0  0  0  0  0  0  0  0  0
   59.4380  154.4221   -7.1770 C   0  0  0  0  0  0  0  0  0  0  0  0
   55.5562  156.1874   -4.0866 C   0  0  0  0  0  0  0  0  0  0  0  0
   54.3334  156.1420   -3.1735 C   0  0  0  0  0  0  0  0  0  0  0  0
   55.3048  153.7113   -4.4289 N   0  0  0  0  0  0  0  0  0  0  0  0
   57.0663  157.0120   -6.4991 N   0  0  0  0  0  0  0  0  0  0  0  0
   58.0864  157.6447   -7.1731 N   0  0  0  0  0  0  0  0  0  0  0  0
   59.0502  156.7892   -7.4917 N   0  0  0  0  0  0  0  0  0  0  0  0
   56.7002  154.7446   -5.8135 N   0  0  0  0  0  0  0  0  0  0  0  0
   58.6353  155.6069   -7.0158 N   0  0  0  0  0  0  0  0  0  0  0  0
   54.0580  157.4117   -2.5563 N   0  0  0  0  0  0  0  0  0  0  0  0
   55.5915  151.7620   -5.2705 H   0  0  0  0  0  0  0  0  0  0  0  0
   57.3257  153.0507   -6.9897 H   0  0  0  0  0  0  0  0  0  0  0  0
   59.1517  153.9462   -8.1185 H   0  0  0  0  0  0  0  0  0  0  0  0
   60.4959  154.6986   -7.1946 H   0  0  0  0  0  0  0  0  0  0  0  0
   59.2584  153.7467   -6.3358 H   0  0  0  0  0  0  0  0  0  0  0  0
   55.4013  156.9478   -4.8625 H   0  0  0  0  0  0  0  0  0  0  0  0
   56.4390  156.5101   -3.5198 H   0  0  0  0  0  0  0  0  0  0  0  0
   53.4447  155.8736   -3.7534 H   0  0  0  0  0  0  0  0  0  0  0  0
   54.4542  155.4048   -2.3730 H   0  0  0  0  0  0  0  0  0  0  0  0
   53.5403  157.4357   -1.6924 H   0  0  0  0  0  0  0  0  0  0  0  0
   54.2018  158.2566   -3.0861 H   0  0  0  0  0  0  0  0  0  0  0  0
  1  2  2  0  0  0  0
  1  8  1  0  0  0  0
  2 12  1  0  0  0  0
  3  6  1  0  0  0  0
  3  8  2  0  0  0  0
  3 12  1  0  0  0  0
  4  9  2  0  0  0  0
  4 12  1  0  0  0  0
  4 13  1  0  0  0  0
  5 13  1  0  0  0  0
  6  7  1  0  0  0  0
  7 14  1  0  0  0  0
  9 10  1  0  0  0  0
 10 11  2  0  0  0  0
 11 13  1  0  0  0  0
  1 15  1  0  0  0  0
  2 16  1  0  0  0  0
  5 17  1  0  0  0  0
  5 18  1  0  0  0  0
  5 19  1  0  0  0  0
  6 20  1  0  0  0  0
  6 21  1  0  0  0  0
  7 22  1  0  0  0  0
  7 23  1  0  0  0  0
 14 24  1  0  0  0  0
 14 25  1  0  0  0  0
M  END
> <FRED Chemgauss4 score>
-4.857339

$$$$
C87688032	P137156844
  -OEChem-05122015083D

 24 25  0     1  0  0  0  0  0999 V2000
   53.6642  156.2800   -3.3909 C   0  0  0  0  0  0  0  0  0  0  0  0
   55.2742  157.5777   -2.8862 C   0  0  0  0  0  0  0  0  0  0  0  0
   54.6230  156.0676   -4.3533 C   0  0  0  0  0  0  0  0  0  0  0  0
   57.4004  158.4411   -5.2147 C   0  0  0  0  0  0  0  0  0  0  0  0
   56.9717  157.4176   -6.2190 C   0  0  0  0  0  0  0  0  0  0  0  0
   56.9592  157.0737   -4.7480 C   0  0  0  0  0  0  0  0  0  0  0  0
   54.6544  155.1454   -5.5583 C   0  0  1  0  0  0  0  0  0  0  0  0
   55.8343  154.1756   -5.5075 C   0  0  0  0  0  0  0  0  0  0  0  0
   54.0756  157.2214   -2.4808 N   0  0  0  0  0  0  0  0  0  0  0  0
   55.6481  156.9062   -4.0170 N   0  0  0  0  0  0  0  0  0  0  0  0
   53.4064  154.3918   -5.7049 N   0  0  0  0  0  0  0  0  0  0  0  0
   55.6419  153.1220   -6.3380 F   0  0  0  0  0  0  0  0  0  0  0  0
   56.9651  154.8018   -5.9224 F   0  0  0  0  0  0  0  0  0  0  0  0
   52.6978  155.8044   -3.3053 H   0  0  0  0  0  0  0  0  0  0  0  0
   55.9101  158.3103   -2.4080 H   0  0  0  0  0  0  0  0  0  0  0  0
   58.4555  158.6781   -5.1538 H   0  0  0  0  0  0  0  0  0  0  0  0
   56.7410  159.2830   -5.0416 H   0  0  0  0  0  0  0  0  0  0  0  0
   56.0246  157.5714   -6.7217 H   0  0  0  0  0  0  0  0  0  0  0  0
   57.7377  156.9626   -6.8349 H   0  0  0  0  0  0  0  0  0  0  0  0
   57.6996  156.3991   -4.3762 H   0  0  0  0  0  0  0  0  0  0  0  0
   54.7726  155.7604   -6.4595 H   0  0  0  0  0  0  0  0  0  0  0  0
   56.0105  153.7914   -4.4979 H   0  0  0  0  0  0  0  0  0  0  0  0
   53.4332  153.5470   -6.2291 H   0  0  0  0  0  0  0  0  0  0  0  0
   52.5575  154.8470   -5.4566 H   0  0  0  0  0  0  0  0  0  0  0  0
  1  3  2  0  0  0  0
  1  9  1  0  0  0  0
  2  9  2  0  0  0  0
  2 10  1  0  0  0  0
  3  7  1  0  0  0  0
  3 10  1  0  0  0  0
  4  5  1  0  0  0  0
  4  6  1  0  0  0  0
  5  6  1  0  0  0  0
  6 10  1  0  0  0  0
  7  8  1  0  0  0  0
  7 11  1  0  0  0  0
  8 12  1  0  0  0  0
  8 13  1  0  0  0  0
  1 14  1  0  0  0  0
  2 15  1  0  0  0  0
  4 16  1  0  0  0  0
  4 17  1  0  0  0  0
  5 18  1  0  0  0  0
  5 19  1  0  0  0  0
  6 20  1  0  0  0  0
  7 21  1  0  0  0  0
  8 22  1  0  0  0  0
 11 23  1  0  0  0  0
 11 24  1  0  0  0  0
M  END
> <FRED Chemgauss4 score>
-4.854827

$$$$
C45059901	P67910381
  -OEChem-05122015083D

 25 24  0     0  0  0  0  0  0999 V2000
   53.7502  156.6484   -6.0091 C   0  0  0  0  0  0  0  0  0  0  0  0
   54.6235  157.5838   -3.2692 C   0  0  0  0  0  0  0  0  0  0  0  0
   56.3989  158.4967   -4.7132 C   0  0  0  0  0  0  0  0  0  0  0  0
   56.5635  158.9620   -0.4580 C   0  0  0  0  0  0  0  0  0  0  0  0
   54.1934  158.0695   -5.7233 C   0  0  0  0  0  0  0  0  0  0  0  0
   55.6455  157.6170   -2.1524 C   0  0  0  0  0  0  0  0  0  0  0  0
   54.6917  155.7851   -6.2523 N   0  0  0  0  0  0  0  0  0  0  0  0
   52.3947  156.4174   -5.9675 N   0  0  0  0  0  0  0  0  0  0  0  0
   55.0300  158.0318   -4.5264 N   0  0  0  0  0  0  0  0  0  0  0  0
   53.4860  157.1731   -3.0198 O   0  0  0  0  0  0  0  0  0  0  0  0
   54.1376  154.5237   -6.4890 O   0  0  0  0  0  0  0  0  0  0  0  0
   55.6172  158.8786   -1.5198 O   0  0  0  0  0  0  0  0  0  0  0  0
   57.0420  157.6632   -5.0072 H   0  0  0  0  0  0  0  0  0  0  0  0
   56.7823  158.9262   -3.7837 H   0  0  0  0  0  0  0  0  0  0  0  0
   56.4351  159.2615   -5.4937 H   0  0  0  0  0  0  0  0  0  0  0  0
   56.5088  159.9512    0.0030 H   0  0  0  0  0  0  0  0  0  0  0  0
   57.5685  158.7859   -0.8498 H   0  0  0  0  0  0  0  0  0  0  0  0
   56.3274  158.2007    0.2893 H   0  0  0  0  0  0  0  0  0  0  0  0
   53.3368  158.7207   -5.5314 H   0  0  0  0  0  0  0  0  0  0  0  0
   54.7860  158.4672   -6.5515 H   0  0  0  0  0  0  0  0  0  0  0  0
   55.4604  156.8236   -1.4236 H   0  0  0  0  0  0  0  0  0  0  0  0
   56.6452  157.4507   -2.5671 H   0  0  0  0  0  0  0  0  0  0  0  0
   51.7313  157.1550   -5.7549 H   0  0  0  0  0  0  0  0  0  0  0  0
   52.0178  155.4925   -6.1445 H   0  0  0  0  0  0  0  0  0  0  0  0
   54.9328  153.9890   -6.6527 H   0  0  0  0  0  0  0  0  0  0  0  0
  1  5  1  0  0  0  0
  1  7  2  0  0  0  0
  1  8  1  0  0  0  0
  2  6  1  0  0  0  0
  2  9  1  0  0  0  0
  2 10  2  0  0  0  0
  3  9  1  0  0  0  0
  4 12  1  0  0  0  0
  5  9  1  0  0  0  0
  6 12  1  0  0  0  0
  7 11  1  0  0  0  0
  3 13  1  0  0  0  0
  3 14  1  0  0  0  0
  3 15  1  0  0  0  0
  4 16  1  0  0  0  0
  4 17  1  0  0  0  0
  4 18  1  0  0  0  0
  5 19  1  0  0  0  0
  5 20  1  0  0  0  0
  6 21  1  0  0  0  0
  6 22  1  0  0  0  0
  8 23  1  0  0  0  0
  8 24  1  0  0  0  0
 11 25  1  0  0  0  0
M  END
> <FRED Chemgauss4 score>
-4.850494

$$$$
C85798005	P134352462
  -OEChem-05122015083D

 26 26  0     1  0  0  0  0  0999 V2000
   55.1116  158.7939   -1.9932 C   0  0  0  0  0  0  0  0  0  0  0  0
   56.3321  158.9224   -2.6189 C   0  0  0  0  0  0  0  0  0  0  0  0
   54.4352  157.3289   -3.6136 C   0  0  0  0  0  0  0  0  0  0  0  0
   55.6554  157.4579   -4.2397 C   0  0  0  0  0  0  0  0  0  0  0  0
   55.6511  153.0989   -6.5473 C   0  0  0  0  0  0  0  0  0  0  0  0
   57.6432  154.4204   -6.7874 C   0  0  0  0  0  0  0  0  0  0  0  0
   55.8730  155.1668   -5.3445 C   0  0  0  0  0  0  0  0  0  0  0  0
   55.9509  156.6918   -5.5175 C   0  0  1  0  0  0  0  0  0  0  0  0
   54.1413  157.9947   -2.4793 N   0  0  0  0  0  0  0  0  0  0  0  0
   56.6259  158.2568   -3.7534 N   0  0  0  0  0  0  0  0  0  0  0  0
   55.0500  157.1107   -6.5980 N   0  0  0  0  0  0  0  0  0  0  0  0
   56.1959  154.4557   -6.5810 N   0  0  0  0  0  0  0  0  0  0  0  0
   54.8763  159.3293   -1.0818 H   0  0  0  0  0  0  0  0  0  0  0  0
   57.1114  159.5647   -2.2276 H   0  0  0  0  0  0  0  0  0  0  0  0
   53.6504  156.6883   -3.9985 H   0  0  0  0  0  0  0  0  0  0  0  0
   54.5695  153.1321   -6.3929 H   0  0  0  0  0  0  0  0  0  0  0  0
   56.1057  152.5292   -5.7323 H   0  0  0  0  0  0  0  0  0  0  0  0
   55.8564  152.5857   -7.4907 H   0  0  0  0  0  0  0  0  0  0  0  0
   58.0442  155.4371   -6.8116 H   0  0  0  0  0  0  0  0  0  0  0  0
   57.8780  153.9269   -7.7344 H   0  0  0  0  0  0  0  0  0  0  0  0
   58.1274  153.8704   -5.9760 H   0  0  0  0  0  0  0  0  0  0  0  0
   56.5965  154.8269   -4.5946 H   0  0  0  0  0  0  0  0  0  0  0  0
   54.8810  154.8313   -5.0237 H   0  0  0  0  0  0  0  0  0  0  0  0
   56.9701  156.9411   -5.8406 H   0  0  0  0  0  0  0  0  0  0  0  0
   54.9232  156.4874   -7.3610 H   0  0  0  0  0  0  0  0  0  0  0  0
   54.7714  158.0640   -6.6229 H   0  0  0  0  0  0  0  0  0  0  0  0
  1  2  2  0  0  0  0
  1  9  1  0  0  0  0
  2 10  1  0  0  0  0
  3  4  1  0  0  0  0
  3  9  2  0  0  0  0
  4  8  1  0  0  0  0
  4 10  2  0  0  0  0
  5 12  1  0  0  0  0
  6 12  1  0  0  0  0
  7  8  1  0  0  0  0
  7 12  1  0  0  0  0
  8 11  1  0  0  0  0
  1 13  1  0  0  0  0
  2 14  1  0  0  0  0
  3 15  1  0  0  0  0
  5 16  1  0  0  0  0
  5 17  1  0  0  0  0
  5 18  1  0  0  0  0
  6 19  1  0  0  0  0
  6 20  1  0  0  0  0
  6 21  1  0  0  0  0
  7 22  1  0  0  0  0
  7 23  1  0  0  0  0
  8 24  1  0  0  0  0
 11 25  1  0  0  0  0
 11 26  1  0  0  0  0
M  END
> <FRED Chemgauss4 score>
-4.844682

$$$$
C85184419	P133304798
  -OEChem-05122015083D

 25 25  0     1  0  0  0  0  0999 V2000
   56.3710  157.3280   -5.8173 C   0  0  0  0  0  0  0  0  0  0  0  0
   57.0608  155.3856   -6.3482 C   0  0  0  0  0  0  0  0  0  0  0  0
   55.3314  156.4766   -5.5263 C   0  0  0  0  0  0  0  0  0  0  0  0
   55.4576  153.0045   -6.8538 C   0  0  0  0  0  0  0  0  0  0  0  0
   55.0723  153.9870   -5.7611 C   0  0  0  0  0  0  0  0  0  0  0  0
   53.7020  156.0034   -3.6213 C   0  0  0  0  0  0  0  0  0  0  0  0
   53.9486  156.7314   -4.9520 C   0  0  2  0  0  0  0  0  0  0  0  0
   57.4445  156.6428   -6.3289 N   0  0  0  0  0  0  0  0  0  0  0  0
   55.7879  155.2359   -5.8721 N   0  0  0  0  0  0  0  0  0  0  0  0
   54.6158  156.4294   -2.5936 N   0  0  0  0  0  0  0  0  0  0  0  0
   52.9076  156.3696   -5.9216 N   0  0  0  0  0  0  0  0  0  0  0  0
   56.4035  158.4000   -5.6854 H   0  0  0  0  0  0  0  0  0  0  0  0
   57.6545  154.5497   -6.6922 H   0  0  0  0  0  0  0  0  0  0  0  0
   55.2528  153.4173   -7.8473 H   0  0  0  0  0  0  0  0  0  0  0  0
   54.8892  152.0756   -6.7464 H   0  0  0  0  0  0  0  0  0  0  0  0
   56.5240  152.7599   -6.8075 H   0  0  0  0  0  0  0  0  0  0  0  0
   55.2808  153.5653   -4.7714 H   0  0  0  0  0  0  0  0  0  0  0  0
   53.9997  154.2080   -5.8011 H   0  0  0  0  0  0  0  0  0  0  0  0
   52.6943  156.2167   -3.2467 H   0  0  0  0  0  0  0  0  0  0  0  0
   53.7977  154.9164   -3.7141 H   0  0  0  0  0  0  0  0  0  0  0  0
   53.8459  157.8086   -4.7666 H   0  0  0  0  0  0  0  0  0  0  0  0
   54.8129  155.8088   -1.8257 H   0  0  0  0  0  0  0  0  0  0  0  0
   54.8816  157.3994   -2.5462 H   0  0  0  0  0  0  0  0  0  0  0  0
   53.1015  156.5191   -6.8843 H   0  0  0  0  0  0  0  0  0  0  0  0
   51.9952  156.1880   -5.5728 H   0  0  0  0  0  0  0  0  0  0  0  0
  1  3  2  0  0  0  0
  1  8  1  0  0  0  0
  2  8  2  0  0  0  0
  2  9  1  0  0  0  0
  3  7  1  0  0  0  0
  3  9  1  0  0  0  0
  4  5  1  0  0  0  0
  5  9  1  0  0  0  0
  6  7  1  0  0  0  0
  6 10  1  0  0  0  0
  7 11  1  0  0  0  0
  1 12  1  0  0  0  0
  2 13  1  0  0  0  0
  4 14  1  0  0  0  0
  4 15  1  0  0  0  0
  4 16  1  0  0  0  0
  5 17  1  0  0  0  0
  5 18  1  0  0  0  0
  6 19  1  0  0  0  0
  6 20  1  0  0  0  0
  7 21  1  0  0  0  0
 10 22  1  0  0  0  0
 10 23  1  0  0  0  0
 11 24  1  0  0  0  0
 11 25  1  0  0  0  0
M  END
> <FRED Chemgauss4 score>
-4.844035

$$$$
C86590475	P135571658
  -OEChem-05122015083D

 25 25  0     1  0  0  0  0  0999 V2000
   57.1927  155.3341   -5.9661 C   0  0  0  0  0  0  0  0  0  0  0  0
   58.2313  153.4527   -7.2815 C   0  0  0  0  0  0  0  0  0  0  0  0
   55.4837  152.3753   -7.1457 C   0  0  0  0  0  0  0  0  0  0  0  0
   55.0096  155.4631   -4.6620 C   0  0  0  0  0  0  0  0  0  0  0  0
   54.4055  156.3747   -3.5994 C   0  0  0  0  0  0  0  0  0  0  0  0
   57.0754  153.9287   -6.3867 C   0  0  2  0  0  0  0  0  0  0  0  0
   58.1636  156.1767   -6.2339 N   0  0  0  0  0  0  0  0  0  0  0  0
   57.8108  157.3571   -5.6197 N   0  0  0  0  0  0  0  0  0  0  0  0
   56.6480  157.2384   -4.9904 N   0  0  0  0  0  0  0  0  0  0  0  0
   56.2638  155.9731   -5.2083 N   0  0  0  0  0  0  0  0  0  0  0  0
   53.1834  155.8500   -3.0528 N   0  0  0  0  0  0  0  0  0  0  0  0
   55.8542  153.7406   -7.1238 O   0  0  0  0  0  0  0  0  0  0  0  0
   58.3437  154.1077   -8.1514 H   0  0  0  0  0  0  0  0  0  0  0  0
   58.0577  152.4311   -7.6380 H   0  0  0  0  0  0  0  0  0  0  0  0
   59.1807  153.4324   -6.7352 H   0  0  0  0  0  0  0  0  0  0  0  0
   54.5553  152.2579   -7.7100 H   0  0  0  0  0  0  0  0  0  0  0  0
   55.3481  152.0172   -6.1220 H   0  0  0  0  0  0  0  0  0  0  0  0
   56.2765  151.7995   -7.6291 H   0  0  0  0  0  0  0  0  0  0  0  0
   55.2245  154.4763   -4.2345 H   0  0  0  0  0  0  0  0  0  0  0  0
   54.3142  155.3103   -5.4959 H   0  0  0  0  0  0  0  0  0  0  0  0
   55.1030  156.4887   -2.7639 H   0  0  0  0  0  0  0  0  0  0  0  0
   54.1854  157.3690   -4.0013 H   0  0  0  0  0  0  0  0  0  0  0  0
   57.0179  153.2245   -5.5295 H   0  0  0  0  0  0  0  0  0  0  0  0
   52.5173  156.4839   -2.6407 H   0  0  0  0  0  0  0  0  0  0  0  0
   53.0983  154.8570   -2.9038 H   0  0  0  0  0  0  0  0  0  0  0  0
  1  6  1  0  0  0  0
  1  7  2  0  0  0  0
  1 10  1  0  0  0  0
  2  6  1  0  0  0  0
  3 12  1  0  0  0  0
  4  5  1  0  0  0  0
  4 10  1  0  0  0  0
  5 11  1  0  0  0  0
  6 12  1  0  0  0  0
  7  8  1  0  0  0  0
  8  9  2  0  0  0  0
  9 10  1  0  0  0  0
  2 13  1  0  0  0  0
  2 14  1  0  0  0  0
  2 15  1  0  0  0  0
  3 16  1  0  0  0  0
  3 17  1  0  0  0  0
  3 18  1  0  0  0  0
  4 19  1  0  0  0  0
  4 20  1  0  0  0  0
  5 21  1  0  0  0  0
  5 22  1  0  0  0  0
  6 23  1  0  0  0  0
 11 24  1  0  0  0  0
 11 25  1  0  0  0  0
M  END
> <FRED Chemgauss4 score>
-4.838890

$$$$
C05190256	P07671255
  -OEChem-05122015083D

 16 16  0     0  0  0  0  0  0999 V2000
   53.5125  156.2004   -3.5107 C   0  0  0  0  0  0  0  0  0  0  0  0
   53.9983  156.4725   -5.8012 C   0  0  0  0  0  0  0  0  0  0  0  0
   55.3078  156.3318   -5.0399 C   0  0  0  0  0  0  0  0  0  0  0  0
   55.8622  155.8382   -2.6191 C   0  0  0  0  0  0  0  0  0  0  0  0
   52.9794  156.4664   -4.7825 N   0  0  0  0  0  0  0  0  0  0  0  0
   54.9020  156.0844   -3.6722 N   0  0  0  0  0  0  0  0  0  0  0  0
   52.8718  156.0958   -2.4730 O   0  0  0  0  0  0  0  0  0  0  0  0
   55.2428  155.0799   -1.5982 O   0  0  0  0  0  0  0  0  0  0  0  0
   53.9406  157.4028   -6.3725 H   0  0  0  0  0  0  0  0  0  0  0  0
   53.8207  155.6252   -6.4701 H   0  0  0  0  0  0  0  0  0  0  0  0
   55.9137  155.4990   -5.4087 H   0  0  0  0  0  0  0  0  0  0  0  0
   55.8951  157.2550   -5.0718 H   0  0  0  0  0  0  0  0  0  0  0  0
   56.1967  156.7984   -2.2188 H   0  0  0  0  0  0  0  0  0  0  0  0
   56.7035  155.2812   -3.0385 H   0  0  0  0  0  0  0  0  0  0  0  0
   51.9884  156.5908   -4.9638 H   0  0  0  0  0  0  0  0  0  0  0  0
   55.9111  154.9314   -0.9076 H   0  0  0  0  0  0  0  0  0  0  0  0
  1  5  1  0  0  0  0
  1  6  1  0  0  0  0
  1  7  2  0  0  0  0
  2  3  1  0  0  0  0
  2  5  1  0  0  0  0
  3  6  1  0  0  0  0
  4  6  1  0  0  0  0
  4  8  1  0  0  0  0
  2  9  1  0  0  0  0
  2 10  1  0  0  0  0
  3 11  1  0  0  0  0
  3 12  1  0  0  0  0
  4 13  1  0  0  0  0
  4 14  1  0  0  0  0
  5 15  1  0  0  0  0
  8 16  1  0  0  0  0
M  END
> <FRED Chemgauss4 score>
-4.838033

$$$$
C39064009	P59184455
  -OEChem-05122015083D

 21 21  0     0  0  0  0  0  0999 V2000
   56.7510  158.3959   -5.0303 C   0  0  0  0  0  0  0  0  0  0  0  0
   55.8476  157.4286   -4.8243 C   0  0  0  0  0  0  0  0  0  0  0  0
   54.4798  157.8033   -4.4720 C   0  0  0  0  0  0  0  0  0  0  0  0
   56.2141  155.9788   -4.9714 C   0  0  0  0  0  0  0  0  0  0  0  0
   57.5102  155.7968   -5.7833 C   0  0  0  0  0  0  0  0  0  0  0  0
   58.6004  156.7901   -5.3628 C   0  0  0  0  0  0  0  0  0  0  0  0
   58.0577  158.1362   -5.3525 N   0  0  0  0  0  0  0  0  0  0  0  0
   52.5713  159.0101   -5.2426 N   0  0  0  0  0  0  0  0  0  0  0  0
   53.8685  158.5802   -5.4392 N   0  0  0  0  0  0  0  0  0  0  0  0
   53.9721  157.4371   -3.4093 O   0  0  0  0  0  0  0  0  0  0  0  0
   56.5291  159.4535   -4.9545 H   0  0  0  0  0  0  0  0  0  0  0  0
   56.3420  155.5432   -3.9731 H   0  0  0  0  0  0  0  0  0  0  0  0
   55.4067  155.4281   -5.4679 H   0  0  0  0  0  0  0  0  0  0  0  0
   57.8758  154.7691   -5.6797 H   0  0  0  0  0  0  0  0  0  0  0  0
   57.2831  155.9482   -6.8472 H   0  0  0  0  0  0  0  0  0  0  0  0
   58.9680  156.5410   -4.3609 H   0  0  0  0  0  0  0  0  0  0  0  0
   59.4484  156.7363   -6.0532 H   0  0  0  0  0  0  0  0  0  0  0  0
   58.6853  158.9273   -5.4459 H   0  0  0  0  0  0  0  0  0  0  0  0
   52.4951  159.9288   -5.6773 H   0  0  0  0  0  0  0  0  0  0  0  0
   52.4591  159.1623   -4.2410 H   0  0  0  0  0  0  0  0  0  0  0  0
   54.3357  158.8541   -6.2983 H   0  0  0  0  0  0  0  0  0  0  0  0
  1  2  2  0  0  0  0
  1  7  1  0  0  0  0
  2  3  1  0  0  0  0
  2  4  1  0  0  0  0
  3  9  1  0  0  0  0
  3 10  2  0  0  0  0
  4  5  1  0  0  0  0
  5  6  1  0  0  0  0
  6  7  1  0  0  0  0
  8  9  1  0  0  0  0
  1 11  1  0  0  0  0
  4 12  1  0  0  0  0
  4 13  1  0  0  0  0
  5 14  1  0  0  0  0
  5 15  1  0  0  0  0
  6 16  1  0  0  0  0
  6 17  1  0  0  0  0
  7 18  1  0  0  0  0
  8 19  1  0  0  0  0
  8 20  1  0  0  0  0
  9 21  1  0  0  0  0
M  END
> <FRED Chemgauss4 score>
-4.837105

$$$$
C63169607	P97020609
  -OEChem-05122015083D

 24 24  0     0  0  0  0  0  0999 V2000
   53.7044  155.8236   -6.1938 C   0  0  0  0  0  0  0  0  0  0  0  0
   54.9095  154.4275   -4.9963 C   0  0  0  0  0  0  0  0  0  0  0  0
   53.8959  155.3474   -4.8829 C   0  0  0  0  0  0  0  0  0  0  0  0
   57.6827  154.1020   -6.6686 C   0  0  0  0  0  0  0  0  0  0  0  0
   60.0575  153.5716   -7.1839 C   0  0  0  0  0  0  0  0  0  0  0  0
   53.1755  155.7461   -3.6632 C   0  0  0  0  0  0  0  0  0  0  0  0
   56.2850  153.5844   -6.9327 C   0  0  0  0  0  0  0  0  0  0  0  0
   54.5302  155.2533   -7.0752 N   0  0  0  0  0  0  0  0  0  0  0  0
   55.2504  154.4095   -6.3167 N   0  0  0  0  0  0  0  0  0  0  0  0
   53.5826  157.0427   -3.1617 N   0  0  0  0  0  0  0  0  0  0  0  0
   58.6409  153.3049   -7.2779 N   0  0  0  0  0  0  0  0  0  0  0  0
   57.9182  155.1017   -5.9952 O   0  0  0  0  0  0  0  0  0  0  0  0
   52.9989  156.5628   -6.5458 H   0  0  0  0  0  0  0  0  0  0  0  0
   55.4057  153.8007   -4.2678 H   0  0  0  0  0  0  0  0  0  0  0  0
   60.3802  154.1895   -8.0258 H   0  0  0  0  0  0  0  0  0  0  0  0
   60.6203  152.6343   -7.1992 H   0  0  0  0  0  0  0  0  0  0  0  0
   60.2818  154.0999   -6.2533 H   0  0  0  0  0  0  0  0  0  0  0  0
   52.0823  155.7999   -3.8246 H   0  0  0  0  0  0  0  0  0  0  0  0
   53.3215  155.0301   -2.8328 H   0  0  0  0  0  0  0  0  0  0  0  0
   56.1867  152.5659   -6.5405 H   0  0  0  0  0  0  0  0  0  0  0  0
   56.0972  153.5545   -8.0120 H   0  0  0  0  0  0  0  0  0  0  0  0
   53.4860  157.2311   -2.1818 H   0  0  0  0  0  0  0  0  0  0  0  0
   53.7547  157.7799   -3.8190 H   0  0  0  0  0  0  0  0  0  0  0  0
   58.3480  152.4763   -7.7871 H   0  0  0  0  0  0  0  0  0  0  0  0
  1  3  1  0  0  0  0
  1  8  2  0  0  0  0
  2  3  2  0  0  0  0
  2  9  1  0  0  0  0
  3  6  1  0  0  0  0
  4  7  1  0  0  0  0
  4 11  1  0  0  0  0
  4 12  2  0  0  0  0
  5 11  1  0  0  0  0
  6 10  1  0  0  0  0
  7  9  1  0  0  0  0
  8  9  1  0  0  0  0
  1 13  1  0  0  0  0
  2 14  1  0  0  0  0
  5 15  1  0  0  0  0
  5 16  1  0  0  0  0
  5 17  1  0  0  0  0
  6 18  1  0  0  0  0
  6 19  1  0  0  0  0
  7 20  1  0  0  0  0
  7 21  1  0  0  0  0
 10 22  1  0  0  0  0
 10 23  1  0  0  0  0
 11 24  1  0  0  0  0
M  END
> <FRED Chemgauss4 score>
-4.836604

$$$$
C78677402	P122772480
  -OEChem-05122015083D

 19 19  0     1  0  0  0  0  0999 V2000
   55.4991  158.5419   -2.4508 C   0  0  0  0  0  0  0  0  0  0  0  0
   56.4272  158.3922   -3.4577 C   0  0  0  0  0  0  0  0  0  0  0  0
   54.2486  156.8527   -3.3523 C   0  0  0  0  0  0  0  0  0  0  0  0
   55.1763  156.7035   -4.3596 C   0  0  0  0  0  0  0  0  0  0  0  0
   56.9122  154.4855   -6.5491 C   0  0  0  0  0  0  0  0  0  0  0  0
   56.1210  154.6662   -5.4847 C   0  0  0  0  0  0  0  0  0  0  0  0
   54.9794  155.6524   -5.4403 C   0  0  1  0  0  0  0  0  0  0  0  0
   54.3932  157.7748   -2.3800 N   0  0  0  0  0  0  0  0  0  0  0  0
   56.2824  157.4704   -4.4302 N   0  0  0  0  0  0  0  0  0  0  0  0
   53.6937  154.9543   -5.3054 N   0  0  0  0  0  0  0  0  0  0  0  0
   55.6160  159.2830   -1.6699 H   0  0  0  0  0  0  0  0  0  0  0  0
   57.3157  159.0089   -3.5138 H   0  0  0  0  0  0  0  0  0  0  0  0
   53.3573  156.2397   -3.2889 H   0  0  0  0  0  0  0  0  0  0  0  0
   57.7161  153.7582   -6.5185 H   0  0  0  0  0  0  0  0  0  0  0  0
   56.7757  155.0551   -7.4615 H   0  0  0  0  0  0  0  0  0  0  0  0
   56.3091  154.0629   -4.5989 H   0  0  0  0  0  0  0  0  0  0  0  0
   54.9333  156.1648   -6.4104 H   0  0  0  0  0  0  0  0  0  0  0  0
   53.6033  154.0677   -5.7430 H   0  0  0  0  0  0  0  0  0  0  0  0
   52.9201  155.4763   -4.9664 H   0  0  0  0  0  0  0  0  0  0  0  0
  1  2  2  0  0  0  0
  1  8  1  0  0  0  0
  2  9  1  0  0  0  0
  3  4  1  0  0  0  0
  3  8  2  0  0  0  0
  4  7  1  0  0  0  0
  4  9  2  0  0  0  0
  5  6  2  0  0  0  0
  6  7  1  0  0  0  0
  7 10  1  0  0  0  0
  1 11  1  0  0  0  0
  2 12  1  0  0  0  0
  3 13  1  0  0  0  0
  5 14  1  0  0  0  0
  5 15  1  0  0  0  0
  6 16  1  0  0  0  0
  7 17  1  0  0  0  0
 10 18  1  0  0  0  0
 10 19  1  0  0  0  0
M  END
> <FRED Chemgauss4 score>
-4.834374

$$$$
C82838441	P129490404
  -OEChem-05122015083D

 21 21  0     1  0  0  0  0  0999 V2000
   56.4526  158.3586   -3.3368 C   0  0  0  0  0  0  0  0  0  0  0  0
   55.5338  159.7057   -1.8543 C   0  0  0  0  0  0  0  0  0  0  0  0
   55.3867  157.7608   -2.7067 C   0  0  0  0  0  0  0  0  0  0  0  0
   52.7676  154.9938   -3.6318 C   0  0  0  0  0  0  0  0  0  0  0  0
   54.8296  156.3682   -2.9233 C   0  0  2  0  0  0  0  0  0  0  0  0
   53.3497  156.3803   -3.3595 C   0  0  1  0  0  0  0  0  0  0  0  0
   54.8189  158.6047   -1.7852 N   0  0  0  0  0  0  0  0  0  0  0  0
   56.5342  159.6041   -2.7806 N   0  0  0  0  0  0  0  0  0  0  0  0
   53.2032  157.2056   -4.5406 N   0  0  0  0  0  0  0  0  0  0  0  0
   54.9972  155.5736   -1.7493 O   0  0  0  0  0  0  0  0  0  0  0  0
   57.1378  158.0266   -4.1035 H   0  0  0  0  0  0  0  0  0  0  0  0
   55.3819  160.6014   -1.2688 H   0  0  0  0  0  0  0  0  0  0  0  0
   53.3398  154.4620   -4.3974 H   0  0  0  0  0  0  0  0  0  0  0  0
   51.7347  155.0760   -3.9891 H   0  0  0  0  0  0  0  0  0  0  0  0
   52.7466  154.3786   -2.7259 H   0  0  0  0  0  0  0  0  0  0  0  0
   55.4386  155.8861   -3.6997 H   0  0  0  0  0  0  0  0  0  0  0  0
   52.7408  156.8670   -2.5880 H   0  0  0  0  0  0  0  0  0  0  0  0
   57.2110  160.3193   -3.0111 H   0  0  0  0  0  0  0  0  0  0  0  0
   53.7835  158.0177   -4.6351 H   0  0  0  0  0  0  0  0  0  0  0  0
   52.4014  157.0682   -5.1269 H   0  0  0  0  0  0  0  0  0  0  0  0
   54.6236  154.7027   -1.9523 H   0  0  0  0  0  0  0  0  0  0  0  0
  1  3  2  0  0  0  0
  1  8  1  0  0  0  0
  2  7  2  0  0  0  0
  2  8  1  0  0  0  0
  3  5  1  0  0  0  0
  3  7  1  0  0  0  0
  4  6  1  0  0  0  0
  5  6  1  0  0  0  0
  5 10  1  0  0  0  0
  6  9  1  0  0  0  0
  1 11  1  0  0  0  0
  2 12  1  0  0  0  0
  4 13  1  0  0  0  0
  4 14  1  0  0  0  0
  4 15  1  0  0  0  0
  5 16  1  0  0  0  0
  6 17  1  0  0  0  0
  8 18  1  0  0  0  0
  9 19  1  0  0  0  0
  9 20  1  0  0  0  0
 10 21  1  0  0  0  0
M  END
> <FRED Chemgauss4 score>
-4.833394

$$$$
C70061876	P108003290
  -OEChem-05122015083D

 28 29  0     1  0  0  0  0  0999 V2000
   58.0357  159.2209   -1.0533 C   0  0  0  0  0  0  0  0  0  0  0  0
   57.1479  161.1712   -0.5602 C   0  0  0  0  0  0  0  0  0  0  0  0
   57.4967  160.3857   -1.6316 C   0  0  0  0  0  0  0  0  0  0  0  0
   55.1272  159.8412   -3.9445 C   0  0  0  0  0  0  0  0  0  0  0  0
   55.9412  157.9011   -5.0840 C   0  0  0  0  0  0  0  0  0  0  0  0
   57.0226  158.4446   -4.1687 C   0  0  0  0  0  0  0  0  0  0  0  0
   54.6563  158.5453   -4.5715 C   0  0  1  0  0  0  0  0  0  0  0  0
   57.3103  160.8723    1.9224 C   0  0  0  0  0  0  0  0  0  0  0  0
   57.3399  160.7021   -3.0908 C   0  0  0  0  0  0  0  0  0  0  0  0
   58.0320  159.2588    0.2818 N   0  0  0  0  0  0  0  0  0  0  0  0
   57.4864  160.4570    0.5514 N   0  0  0  0  0  0  0  0  0  0  0  0
   56.5064  159.7326   -3.7686 N   0  0  0  0  0  0  0  0  0  0  0  0
   54.0080  157.7870   -3.5391 N   0  0  0  0  0  0  0  0  0  0  0  0
   54.3942  160.7513   -3.5850 O   0  0  0  0  0  0  0  0  0  0  0  0
   58.4326  158.3451   -1.5470 H   0  0  0  0  0  0  0  0  0  0  0  0
   56.7000  162.1536   -0.4957 H   0  0  0  0  0  0  0  0  0  0  0  0
   56.1339  158.1163   -6.1431 H   0  0  0  0  0  0  0  0  0  0  0  0
   55.8985  156.8055   -4.9799 H   0  0  0  0  0  0  0  0  0  0  0  0
   57.1834  157.8042   -3.2956 H   0  0  0  0  0  0  0  0  0  0  0  0
   57.9694  158.5995   -4.6977 H   0  0  0  0  0  0  0  0  0  0  0  0
   53.9714  158.7857   -5.3778 H   0  0  0  0  0  0  0  0  0  0  0  0
   56.3238  160.5364    2.2525 H   0  0  0  0  0  0  0  0  0  0  0  0
   58.0932  160.4256    2.5416 H   0  0  0  0  0  0  0  0  0  0  0  0
   57.3843  161.9617    1.9823 H   0  0  0  0  0  0  0  0  0  0  0  0
   56.8856  161.6899   -3.2251 H   0  0  0  0  0  0  0  0  0  0  0  0
   58.3114  160.7196   -3.5958 H   0  0  0  0  0  0  0  0  0  0  0  0
   53.9234  156.7966   -3.6559 H   0  0  0  0  0  0  0  0  0  0  0  0
   53.4854  158.2796   -2.8418 H   0  0  0  0  0  0  0  0  0  0  0  0
  1  3  1  0  0  0  0
  1 10  2  0  0  0  0
  2  3  2  0  0  0  0
  2 11  1  0  0  0  0
  3  9  1  0  0  0  0
  4  7  1  0  0  0  0
  4 12  1  0  0  0  0
  4 14  2  0  0  0  0
  5  6  1  0  0  0  0
  5  7  1  0  0  0  0
  6 12  1  0  0  0  0
  7 13  1  0  0  0  0
  8 11  1  0  0  0  0
  9 12  1  0  0  0  0
 10 11  1  0  0  0  0
  1 15  1  0  0  0  0
  2 16  1  0  0  0  0
  5 17  1  0  0  0  0
  5 18  1  0  0  0  0
  6 19  1  0  0  0  0
  6 20  1  0  0  0  0
  7 21  1  0  0  0  0
  8 22  1  0  0  0  0
  8 23  1  0  0  0  0
  8 24  1  0  0  0  0
  9 25  1  0  0  0  0
  9 26  1  0  0  0  0
 13 27  1  0  0  0  0
 13 28  1  0  0  0  0
M  END
> <FRED Chemgauss4 score>
-4.826505

$$$$
C80937149	P126379197
  -OEChem-05122015083D

 37 37  0     1  0  0  0  0  0999 V2000
   53.3204  156.0131   -3.5345 C   0  0  0  0  0  0  0  0  0  0  0  0
   55.7071  159.4401   -1.0460 C   0  0  0  0  0  0  0  0  0  0  0  0
   54.7626  160.1073   -3.1623 C   0  0  0  0  0  0  0  0  0  0  0  0
   55.7320  157.9820   -1.5172 C   0  0  0  0  0  0  0  0  0  0  0  0
   54.7889  158.6493   -3.6334 C   0  0  0  0  0  0  0  0  0  0  0  0
   55.7979  156.1209   -3.9702 C   0  0  0  0  0  0  0  0  0  0  0  0
   56.4626  162.6670   -2.7562 C   0  0  0  0  0  0  0  0  0  0  0  0
   55.7997  161.7498   -1.7332 C   0  0  0  0  0  0  0  0  0  0  0  0
   54.6925  156.3401   -2.9451 C   0  0  1  0  0  0  0  0  0  0  0  0
   56.5090  164.1186   -2.3220 C   0  0  0  0  0  0  0  0  0  0  0  0
   52.4281  155.5792   -2.6920 N   0  0  0  0  0  0  0  0  0  0  0  0
   55.8276  160.3597   -2.1839 N   0  0  0  0  0  0  0  0  0  0  0  0
   54.6665  157.7304   -2.4952 N   0  0  0  0  0  0  0  0  0  0  0  0
   53.1549  156.1955   -4.8902 N   0  0  0  0  0  0  0  0  0  0  0  0
   51.2264  155.3144   -3.3554 O   0  0  0  0  0  0  0  0  0  0  0  0
   57.0901  164.8939   -3.2620 F   0  0  0  0  0  0  0  0  0  0  0  0
   55.2574  164.5890   -2.1212 F   0  0  0  0  0  0  0  0  0  0  0  0
   57.1917  164.2766   -1.1692 F   0  0  0  0  0  0  0  0  0  0  0  0
   54.7823  159.6307   -0.4845 H   0  0  0  0  0  0  0  0  0  0  0  0
   56.5452  159.5935   -0.3553 H   0  0  0  0  0  0  0  0  0  0  0  0
   54.9020  160.7546   -4.0367 H   0  0  0  0  0  0  0  0  0  0  0  0
   53.7767  160.3404   -2.7374 H   0  0  0  0  0  0  0  0  0  0  0  0
   56.7176  157.7482   -1.9424 H   0  0  0  0  0  0  0  0  0  0  0  0
   55.5926  157.3349   -0.6426 H   0  0  0  0  0  0  0  0  0  0  0  0
   53.9516  158.4957   -4.3251 H   0  0  0  0  0  0  0  0  0  0  0  0
   55.7145  158.4587   -4.1936 H   0  0  0  0  0  0  0  0  0  0  0  0
   55.6468  156.7556   -4.8501 H   0  0  0  0  0  0  0  0  0  0  0  0
   55.8436  155.0803   -4.3105 H   0  0  0  0  0  0  0  0  0  0  0  0
   56.7753  156.3664   -3.5404 H   0  0  0  0  0  0  0  0  0  0  0  0
   57.4904  162.3228   -2.9203 H   0  0  0  0  0  0  0  0  0  0  0  0
   55.9426  162.5953   -3.7188 H   0  0  0  0  0  0  0  0  0  0  0  0
   54.7650  162.0564   -1.5479 H   0  0  0  0  0  0  0  0  0  0  0  0
   56.3370  161.8187   -0.7816 H   0  0  0  0  0  0  0  0  0  0  0  0
   54.8757  155.6907   -2.0808 H   0  0  0  0  0  0  0  0  0  0  0  0
   53.9191  156.5271   -5.4688 H   0  0  0  0  0  0  0  0  0  0  0  0
   52.2756  155.9934   -5.3540 H   0  0  0  0  0  0  0  0  0  0  0  0
   50.6643  155.0055   -2.6248 H   0  0  0  0  0  0  0  0  0  0  0  0
  1  9  1  0  0  0  0
  1 11  2  0  0  0  0
  1 14  1  0  0  0  0
  2  4  1  0  0  0  0
  2 12  1  0  0  0  0
  3  5  1  0  0  0  0
  3 12  1  0  0  0  0
  4 13  1  0  0  0  0
  5 13  1  0  0  0  0
  6  9  1  0  0  0  0
  7  8  1  0  0  0  0
  7 10  1  0  0  0  0
  8 12  1  0  0  0  0
  9 13  1  0  0  0  0
 10 16  1  0  0  0  0
 10 17  1  0  0  0  0
 10 18  1  0  0  0  0
 11 15  1  0  0  0  0
  2 19  1  0  0  0  0
  2 20  1  0  0  0  0
  3 21  1  0  0  0  0
  3 22  1  0  0  0  0
  4 23  1  0  0  0  0
  4 24  1  0  0  0  0
  5 25  1  0  0  0  0
  5 26  1  0  0  0  0
  6 27  1  0  0  0  0
  6 28  1  0  0  0  0
  6 29  1  0  0  0  0
  7 30  1  0  0  0  0
  7 31  1  0  0  0  0
  8 32  1  0  0  0  0
  8 33  1  0  0  0  0
  9 34  1  0  0  0  0
 14 35  1  0  0  0  0
 14 36  1  0  0  0  0
 15 37  1  0  0  0  0
M  END
> <FRED Chemgauss4 score>
-4.824157

$$$$
C38433750	P58145099
  -OEChem-05122015083D

 22 22  0     1  0  0  0  0  0999 V2000
   53.8082  157.0301   -5.9264 C   0  0  0  0  0  0  0  0  0  0  0  0
   53.5577  157.6877   -3.6096 C   0  0  0  0  0  0  0  0  0  0  0  0
   53.9851  155.5417   -5.5631 C   0  0  2  0  0  0  0  0  0  0  0  0
   53.7388  156.2439   -3.1364 C   0  0  2  0  0  0  0  0  0  0  0  0
   53.3221  155.2292   -4.2085 C   0  0  1  0  0  0  0  0  0  0  0  0
   55.4651  155.1449   -5.5648 C   0  0  0  0  0  0  0  0  0  0  0  0
   54.2662  157.9297   -4.8655 N   0  0  0  0  0  0  0  0  0  0  0  0
   52.9753  156.0198   -1.9551 O   0  0  0  0  0  0  0  0  0  0  0  0
   51.9004  155.2351   -4.3696 O   0  0  0  0  0  0  0  0  0  0  0  0
   55.9499  155.3454   -6.8118 F   0  0  0  0  0  0  0  0  0  0  0  0
   54.3382  157.2613   -6.8622 H   0  0  0  0  0  0  0  0  0  0  0  0
   52.7447  157.2312   -6.1136 H   0  0  0  0  0  0  0  0  0  0  0  0
   52.4935  157.8846   -3.7791 H   0  0  0  0  0  0  0  0  0  0  0  0
   53.9072  158.3861   -2.8405 H   0  0  0  0  0  0  0  0  0  0  0  0
   53.4966  154.9243   -6.3434 H   0  0  0  0  0  0  0  0  0  0  0  0
   54.7934  156.0677   -2.8580 H   0  0  0  0  0  0  0  0  0  0  0  0
   53.6092  154.2197   -3.8886 H   0  0  0  0  0  0  0  0  0  0  0  0
   55.5739  154.0952   -5.3075 H   0  0  0  0  0  0  0  0  0  0  0  0
   56.0212  155.7629   -4.8656 H   0  0  0  0  0  0  0  0  0  0  0  0
   55.2658  157.7959   -4.7205 H   0  0  0  0  0  0  0  0  0  0  0  0
   53.3086  156.6430   -1.2924 H   0  0  0  0  0  0  0  0  0  0  0  0
   51.6923  154.5508   -5.0250 H   0  0  0  0  0  0  0  0  0  0  0  0
  1  3  1  0  0  0  0
  1  7  1  0  0  0  0
  2  4  1  0  0  0  0
  2  7  1  0  0  0  0
  3  5  1  0  0  0  0
  3  6  1  0  0  0  0
  4  5  1  0  0  0  0
  4  8  1  0  0  0  0
  5  9  1  0  0  0  0
  6 10  1  0  0  0  0
  1 11  1  0  0  0  0
  1 12  1  0  0  0  0
  2 13  1  0  0  0  0
  2 14  1  0  0  0  0
  3 15  1  0  0  0  0
  4 16  1  0  0  0  0
  5 17  1  0  0  0  0
  6 18  1  0  0  0  0
  6 19  1  0  0  0  0
  7 20  1  0  0  0  0
  8 21  1  0  0  0  0
  9 22  1  0  0  0  0
M  END
> <FRED Chemgauss4 score>
-4.815989

$$$$
C54433554	P81923854
  -OEChem-05122015083D

 34 34  0     1  0  0  0  0  0999 V2000
   56.3362  156.7934   -5.2954 C   0  0  0  0  0  0  0  0  0  0  0  0
   55.4062  155.8226   -4.8777 C   0  0  0  0  0  0  0  0  0  0  0  0
   55.7359  154.6996   -5.5964 C   0  0  0  0  0  0  0  0  0  0  0  0
   55.1443  153.3483   -5.6172 C   0  0  0  0  0  0  0  0  0  0  0  0
   54.8106  156.3724   -2.4793 C   0  0  0  0  0  0  0  0  0  0  0  0
   60.3886  155.3589   -7.6492 C   0  0  0  0  0  0  0  0  0  0  0  0
   60.7821  154.3733   -5.4937 C   0  0  0  0  0  0  0  0  0  0  0  0
   57.5197  154.2016   -7.3155 C   0  0  0  0  0  0  0  0  0  0  0  0
   58.8637  153.7169   -6.7827 C   0  0  0  0  0  0  0  0  0  0  0  0
   54.3248  155.9814   -3.8912 C   0  0  1  0  0  0  0  0  0  0  0  0
   57.1926  156.3278   -6.2085 N   0  0  0  0  0  0  0  0  0  0  0  0
   56.8021  155.0521   -6.3704 N   0  0  0  0  0  0  0  0  0  0  0  0
   53.3148  156.9548   -4.2977 N   0  0  0  0  0  0  0  0  0  0  0  0
   59.7627  154.8192   -6.4427 N   0  0  0  0  0  0  0  0  0  0  0  0
   56.4279  157.8210   -4.9740 H   0  0  0  0  0  0  0  0  0  0  0  0
   54.3444  153.2755   -6.3726 H   0  0  0  0  0  0  0  0  0  0  0  0
   55.8935  152.5712   -5.8474 H   0  0  0  0  0  0  0  0  0  0  0  0
   54.7091  153.0712   -4.6414 H   0  0  0  0  0  0  0  0  0  0  0  0
   55.3881  157.3024   -2.5198 H   0  0  0  0  0  0  0  0  0  0  0  0
   53.9752  156.5217   -1.7860 H   0  0  0  0  0  0  0  0  0  0  0  0
   55.4516  155.5952   -2.0480 H   0  0  0  0  0  0  0  0  0  0  0  0
   59.6218  155.6903   -8.3542 H   0  0  0  0  0  0  0  0  0  0  0  0
   61.0026  154.5933   -8.1312 H   0  0  0  0  0  0  0  0  0  0  0  0
   61.0255  156.2107   -7.3959 H   0  0  0  0  0  0  0  0  0  0  0  0
   60.3081  153.9712   -4.5945 H   0  0  0  0  0  0  0  0  0  0  0  0
   61.4248  155.2105   -5.2083 H   0  0  0  0  0  0  0  0  0  0  0  0
   61.4020  153.5931   -5.9436 H   0  0  0  0  0  0  0  0  0  0  0  0
   57.6663  154.7907   -8.2288 H   0  0  0  0  0  0  0  0  0  0  0  0
   56.8682  153.3587   -7.5750 H   0  0  0  0  0  0  0  0  0  0  0  0
   58.7156  153.1352   -5.8677 H   0  0  0  0  0  0  0  0  0  0  0  0
   59.3804  153.0846   -7.5120 H   0  0  0  0  0  0  0  0  0  0  0  0
   53.7522  155.0370   -3.7689 H   0  0  0  0  0  0  0  0  0  0  0  0
   52.7714  157.3920   -3.5855 H   0  0  0  0  0  0  0  0  0  0  0  0
   53.0654  156.9967   -5.2621 H   0  0  0  0  0  0  0  0  0  0  0  0
  1  2  1  0  0  0  0
  1 11  2  0  0  0  0
  2  3  2  0  0  0  0
  2 10  1  0  0  0  0
  3  4  1  0  0  0  0
  3 12  1  0  0  0  0
  5 10  1  0  0  0  0
  6 14  1  0  0  0  0
  7 14  1  0  0  0  0
  8  9  1  0  0  0  0
  8 12  1  0  0  0  0
  9 14  1  0  0  0  0
 10 13  1  0  0  0  0
 11 12  1  0  0  0  0
  1 15  1  0  0  0  0
  4 16  1  0  0  0  0
  4 17  1  0  0  0  0
  4 18  1  0  0  0  0
  5 19  1  0  0  0  0
  5 20  1  0  0  0  0
  5 21  1  0  0  0  0
  6 22  1  0  0  0  0
  6 23  1  0  0  0  0
  6 24  1  0  0  0  0
  7 25  1  0  0  0  0
  7 26  1  0  0  0  0
  7 27  1  0  0  0  0
  8 28  1  0  0  0  0
  8 29  1  0  0  0  0
  9 30  1  0  0  0  0
  9 31  1  0  0  0  0
 10 32  1  0  0  0  0
 13 33  1  0  0  0  0
 13 34  1  0  0  0  0
M  END
> <FRED Chemgauss4 score>
-4.813406

$$$$
C41167148	P62470687
  -OEChem-05122015083D

 23 23  0     1  0  0  0  0  0999 V2000
   57.1662  156.2091   -6.5354 C   0  0  0  0  0  0  0  0  0  0  0  0
   55.9230  156.3722   -5.9344 C   0  0  0  0  0  0  0  0  0  0  0  0
   57.7071  154.9340   -6.5711 C   0  0  0  0  0  0  0  0  0  0  0  0
   55.8937  154.0375   -5.4818 C   0  0  0  0  0  0  0  0  0  0  0  0
   55.2680  155.2707   -5.3950 C   0  0  0  0  0  0  0  0  0  0  0  0
   54.8753  155.8335   -2.3805 C   0  0  0  0  0  0  0  0  0  0  0  0
   53.9057  155.4160   -4.7309 C   0  0  1  0  0  0  0  0  0  0  0  0
   53.9732  156.3512   -3.4989 C   0  0  1  0  0  0  0  0  0  0  0  0
   57.1007  153.8400   -6.0579 N   0  0  0  0  0  0  0  0  0  0  0  0
   52.9103  155.8745   -5.7062 N   0  0  0  0  0  0  0  0  0  0  0  0
   52.6592  156.4969   -2.9493 O   0  0  0  0  0  0  0  0  0  0  0  0
   57.6950  157.0534   -6.9628 H   0  0  0  0  0  0  0  0  0  0  0  0
   55.4727  157.3601   -5.8911 H   0  0  0  0  0  0  0  0  0  0  0  0
   58.6745  154.7543   -7.0285 H   0  0  0  0  0  0  0  0  0  0  0  0
   55.4309  153.1420   -5.0788 H   0  0  0  0  0  0  0  0  0  0  0  0
   54.5853  154.8313   -2.0525 H   0  0  0  0  0  0  0  0  0  0  0  0
   54.8544  156.5070   -1.5166 H   0  0  0  0  0  0  0  0  0  0  0  0
   55.9163  155.7919   -2.7203 H   0  0  0  0  0  0  0  0  0  0  0  0
   53.5900  154.4229   -4.3841 H   0  0  0  0  0  0  0  0  0  0  0  0
   54.3123  157.3540   -3.7829 H   0  0  0  0  0  0  0  0  0  0  0  0
   52.0841  156.3026   -5.3572 H   0  0  0  0  0  0  0  0  0  0  0  0
   53.0040  155.5607   -6.6446 H   0  0  0  0  0  0  0  0  0  0  0  0
   52.7395  157.1314   -2.2228 H   0  0  0  0  0  0  0  0  0  0  0  0
  1  2  2  0  0  0  0
  1  3  1  0  0  0  0
  2  5  1  0  0  0  0
  3  9  2  0  0  0  0
  4  5  2  0  0  0  0
  4  9  1  0  0  0  0
  5  7  1  0  0  0  0
  6  8  1  0  0  0  0
  7  8  1  0  0  0  0
  7 10  1  0  0  0  0
  8 11  1  0  0  0  0
  1 12  1  0  0  0  0
  2 13  1  0  0  0  0
  3 14  1  0  0  0  0
  4 15  1  0  0  0  0
  6 16  1  0  0  0  0
  6 17  1  0  0  0  0
  6 18  1  0  0  0  0
  7 19  1  0  0  0  0
  8 20  1  0  0  0  0
 10 21  1  0  0  0  0
 10 22  1  0  0  0  0
 11 23  1  0  0  0  0
M  END
> <FRED Chemgauss4 score>
-4.812633

$$$$
C35202844	P52236352
  -OEChem-05122015083D

 25 25  0     0  0  0  0  0  0999 V2000
   61.6646  157.1931   -8.8438 C   0  0  0  0  0  0  0  0  0  0  0  0
   59.8190  156.2215   -8.9271 C   0  0  0  0  0  0  0  0  0  0  0  0
   57.7666  157.2802   -6.8060 C   0  0  0  0  0  0  0  0  0  0  0  0
   58.4434  158.0826   -7.8966 C   0  0  0  0  0  0  0  0  0  0  0  0
   54.1286  156.5188   -6.4979 C   0  0  0  0  0  0  0  0  0  0  0  0
   55.5010  156.7982   -5.8996 C   0  0  0  0  0  0  0  0  0  0  0  0
   53.1792  155.8499   -5.5112 C   0  0  0  0  0  0  0  0  0  0  0  0
   61.0798  156.0225   -9.2341 N   0  0  0  0  0  0  0  0  0  0  0  0
   60.8450  158.1039   -8.3147 N   0  0  0  0  0  0  0  0  0  0  0  0
   59.6710  157.4577   -8.3796 N   0  0  0  0  0  0  0  0  0  0  0  0
   56.3855  157.4459   -6.8293 N   0  0  0  0  0  0  0  0  0  0  0  0
   58.3768  156.5764   -6.0056 O   0  0  0  0  0  0  0  0  0  0  0  0
   52.9942  156.7134   -4.3974 O   0  0  0  0  0  0  0  0  0  0  0  0
   62.7210  157.3895   -8.9498 H   0  0  0  0  0  0  0  0  0  0  0  0
   59.0013  155.5307   -9.0767 H   0  0  0  0  0  0  0  0  0  0  0  0
   58.6945  159.0808   -7.5208 H   0  0  0  0  0  0  0  0  0  0  0  0
   57.7642  158.1991   -8.7486 H   0  0  0  0  0  0  0  0  0  0  0  0
   53.6824  157.4622   -6.8365 H   0  0  0  0  0  0  0  0  0  0  0  0
   54.2217  155.8925   -7.3941 H   0  0  0  0  0  0  0  0  0  0  0  0
   55.4062  157.4618   -5.0345 H   0  0  0  0  0  0  0  0  0  0  0  0
   55.9824  155.8722   -5.5694 H   0  0  0  0  0  0  0  0  0  0  0  0
   52.2021  155.6609   -5.9665 H   0  0  0  0  0  0  0  0  0  0  0  0
   53.5944  154.9031   -5.1515 H   0  0  0  0  0  0  0  0  0  0  0  0
   55.9801  158.0815   -7.5151 H   0  0  0  0  0  0  0  0  0  0  0  0
   52.3872  156.2606   -3.7899 H   0  0  0  0  0  0  0  0  0  0  0  0
  1  8  1  0  0  0  0
  1  9  2  0  0  0  0
  2  8  2  0  0  0  0
  2 10  1  0  0  0  0
  3  4  1  0  0  0  0
  3 11  1  0  0  0  0
  3 12  2  0  0  0  0
  4 10  1  0  0  0  0
  5  6  1  0  0  0  0
  5  7  1  0  0  0  0
  6 11  1  0  0  0  0
  7 13  1  0  0  0  0
  9 10  1  0  0  0  0
  1 14  1  0  0  0  0
  2 15  1  0  0  0  0
  4 16  1  0  0  0  0
  4 17  1  0  0  0  0
  5 18  1  0  0  0  0
  5 19  1  0  0  0  0
  6 20  1  0  0  0  0
  6 21  1  0  0  0  0
  7 22  1  0  0  0  0
  7 23  1  0  0  0  0
 11 24  1  0  0  0  0
 13 25  1  0  0  0  0
M  END
> <FRED Chemgauss4 score>
-4.806544

$$$$
C74210003	P115654798
  -OEChem-05122015083D

 29 30  0     1  0  0  0  0  0999 V2000
   55.8984  156.0864   -4.8806 C   0  0  0  0  0  0  0  0  0  0  0  0
   54.2556  157.8430   -4.8781 C   0  0  0  0  0  0  0  0  0  0  0  0
   55.8905  156.1547   -6.2645 C   0  0  0  0  0  0  0  0  0  0  0  0
   54.3214  157.8328   -6.2620 C   0  0  0  0  0  0  0  0  0  0  0  0
   58.7084  159.0376   -3.2798 C   0  0  0  0  0  0  0  0  0  0  0  0
   58.8104  159.6202   -2.0386 C   0  0  0  0  0  0  0  0  0  0  0  0
   55.0625  156.9501   -4.1817 C   0  0  0  0  0  0  0  0  0  0  0  0
   56.8325  158.6945   -2.3343 C   0  0  0  0  0  0  0  0  0  0  0  0
   57.2219  159.8185   -0.1181 C   0  0  0  0  0  0  0  0  0  0  0  0
   55.4190  158.2647   -2.0138 C   0  0  0  0  0  0  0  0  0  0  0  0
   55.0308  156.9184   -2.6913 C   0  0  1  0  0  0  0  0  0  0  0  0
   55.1208  157.0087   -6.9757 N   0  0  0  0  0  0  0  0  0  0  0  0
   57.4746  158.4634   -3.4579 N   0  0  0  0  0  0  0  0  0  0  0  0
   57.6010  159.3926   -1.4447 N   0  0  0  0  0  0  0  0  0  0  0  0
   53.7062  156.5125   -2.1725 N   0  0  0  0  0  0  0  0  0  0  0  0
   56.5392  155.3776   -4.3670 H   0  0  0  0  0  0  0  0  0  0  0  0
   53.5935  158.5292   -4.3612 H   0  0  0  0  0  0  0  0  0  0  0  0
   56.5235  155.5015   -6.8563 H   0  0  0  0  0  0  0  0  0  0  0  0
   53.7122  158.5099   -6.8515 H   0  0  0  0  0  0  0  0  0  0  0  0
   59.4605  159.0026   -4.0544 H   0  0  0  0  0  0  0  0  0  0  0  0
   59.6094  160.1567   -1.5461 H   0  0  0  0  0  0  0  0  0  0  0  0
   56.7737  160.8123   -0.1981 H   0  0  0  0  0  0  0  0  0  0  0  0
   56.5041  159.1079    0.3012 H   0  0  0  0  0  0  0  0  0  0  0  0
   58.1100  159.8486    0.5193 H   0  0  0  0  0  0  0  0  0  0  0  0
   54.7458  159.0714   -2.3363 H   0  0  0  0  0  0  0  0  0  0  0  0
   55.2918  158.1984   -0.9252 H   0  0  0  0  0  0  0  0  0  0  0  0
   55.7344  156.1492   -2.3197 H   0  0  0  0  0  0  0  0  0  0  0  0
   53.4833  156.7813   -1.2482 H   0  0  0  0  0  0  0  0  0  0  0  0
   53.2090  155.8335   -2.6905 H   0  0  0  0  0  0  0  0  0  0  0  0
  1  3  2  0  0  0  0
  1  7  1  0  0  0  0
  2  4  1  0  0  0  0
  2  7  2  0  0  0  0
  3 12  1  0  0  0  0
  4 12  2  0  0  0  0
  5  6  2  0  0  0  0
  5 13  1  0  0  0  0
  6 14  1  0  0  0  0
  7 11  1  0  0  0  0
  8 10  1  0  0  0  0
  8 13  2  0  0  0  0
  8 14  1  0  0  0  0
  9 14  1  0  0  0  0
 10 11  1  0  0  0  0
 11 15  1  0  0  0  0
  1 16  1  0  0  0  0
  2 17  1  0  0  0  0
  3 18  1  0  0  0  0
  4 19  1  0  0  0  0
  5 20  1  0  0  0  0
  6 21  1  0  0  0  0
  9 22  1  0  0  0  0
  9 23  1  0  0  0  0
  9 24  1  0  0  0  0
 10 25  1  0  0  0  0
 10 26  1  0  0  0  0
 11 27  1  0  0  0  0
 15 28  1  0  0  0  0
 15 29  1  0  0  0  0
M  END
> <FRED Chemgauss4 score>
-4.804833

$$$$
C81922581	P127811112
  -OEChem-05122015083D

 29 29  0     1  0  0  0  0  0999 V2000
   58.4863  161.4366   -0.4732 C   0  0  0  0  0  0  0  0  0  0  0  0
   57.9807  161.9825   -1.6529 C   0  0  0  0  0  0  0  0  0  0  0  0
   56.8606  159.6539   -0.6013 C   0  0  0  0  0  0  0  0  0  0  0  0
   56.3549  160.1999   -1.7811 C   0  0  0  0  0  0  0  0  0  0  0  0
   57.9263  160.2722    0.0526 C   0  0  0  0  0  0  0  0  0  0  0  0
   56.9150  161.3642   -2.3069 C   0  0  0  0  0  0  0  0  0  0  0  0
   55.2484  155.8289   -4.6791 C   0  0  0  0  0  0  0  0  0  0  0  0
   56.9274  158.2157   -4.0777 C   0  0  0  0  0  0  0  0  0  0  0  0
   54.6724  156.9701   -3.8395 C   0  0  2  0  0  0  0  0  0  0  0  0
   55.7360  157.8767   -3.1859 C   0  0  2  0  0  0  0  0  0  0  0  0
   53.8063  156.3919   -2.8074 N   0  0  0  0  0  0  0  0  0  0  0  0
   54.0565  159.0215   -1.5296 O   0  0  0  0  0  0  0  0  0  0  0  0
   54.5959  160.1612   -3.7104 O   0  0  0  0  0  0  0  0  0  0  0  0
   55.0057  159.3753   -2.5647 S   0  0  0  0  0  0  0  0  0  0  0  0
   58.5511  159.5988    1.5079 Cl  0  0  0  0  0  0  0  0  0  0  0  0
   56.3265  162.0811   -3.7637 Cl  0  0  0  0  0  0  0  0  0  0  0  0
   59.3182  161.9284    0.0248 H   0  0  0  0  0  0  0  0  0  0  0  0
   58.4292  162.8902   -2.0490 H   0  0  0  0  0  0  0  0  0  0  0  0
   56.4237  158.7460   -0.1919 H   0  0  0  0  0  0  0  0  0  0  0  0
   55.8921  155.1677   -4.0891 H   0  0  0  0  0  0  0  0  0  0  0  0
   55.8334  156.2097   -5.5215 H   0  0  0  0  0  0  0  0  0  0  0  0
   54.4437  155.2135   -5.0984 H   0  0  0  0  0  0  0  0  0  0  0  0
   56.6142  158.7185   -4.9984 H   0  0  0  0  0  0  0  0  0  0  0  0
   57.4951  157.3201   -4.3474 H   0  0  0  0  0  0  0  0  0  0  0  0
   57.6108  158.8973   -3.5588 H   0  0  0  0  0  0  0  0  0  0  0  0
   54.0430  157.5851   -4.4949 H   0  0  0  0  0  0  0  0  0  0  0  0
   56.1155  157.3772   -2.2844 H   0  0  0  0  0  0  0  0  0  0  0  0
   53.3058  155.5632   -3.0337 H   0  0  0  0  0  0  0  0  0  0  0  0
   53.5974  156.9505   -2.0119 H   0  0  0  0  0  0  0  0  0  0  0  0
  1  2  2  0  0  0  0
  1  5  1  0  0  0  0
  2  6  1  0  0  0  0
  3  4  1  0  0  0  0
  3  5  2  0  0  0  0
  4  6  2  0  0  0  0
  4 14  1  0  0  0  0
  5 15  1  0  0  0  0
  6 16  1  0  0  0  0
  7  9  1  0  0  0  0
  8 10  1  0  0  0  0
  9 10  1  0  0  0  0
  9 11  1  0  0  0  0
 10 14  1  0  0  0  0
 12 14  2  0  0  0  0
 13 14  2  0  0  0  0
  1 17  1  0  0  0  0
  2 18  1  0  0  0  0
  3 19  1  0  0  0  0
  7 20  1  0  0  0  0
  7 21  1  0  0  0  0
  7 22  1  0  0  0  0
  8 23  1  0  0  0  0
  8 24  1  0  0  0  0
  8 25  1  0  0  0  0
  9 26  1  0  0  0  0
 10 27  1  0  0  0  0
 11 28  1  0  0  0  0
 11 29  1  0  0  0  0
M  END
> <FRED Chemgauss4 score>
-4.803834

$$$$
C70295405	P108368128
  -OEChem-05122015083D

 43 44  0     1  0  0  0  0  0999 V2000
   55.9290  161.3415   -3.6808 C   0  0  0  0  0  0  0  0  0  0  0  0
   56.5033  160.0385   -3.7320 C   0  0  0  0  0  0  0  0  0  0  0  0
   56.8662  162.3091   -3.3929 C   0  0  0  0  0  0  0  0  0  0  0  0
   57.8579  160.0600   -3.4814 C   0  0  0  0  0  0  0  0  0  0  0  0
   54.9942  156.6474   -2.8350 C   0  0  0  0  0  0  0  0  0  0  0  0
   55.0428  155.9519   -4.1818 C   0  0  0  0  0  0  0  0  0  0  0  0
   53.9380  156.4255   -5.1187 C   0  0  0  0  0  0  0  0  0  0  0  0
   54.2863  157.7006   -5.8878 C   0  0  0  0  0  0  0  0  0  0  0  0
   55.6994  158.7732   -4.0304 C   0  0  2  0  0  0  0  0  0  0  0  0
   54.5265  158.9644   -5.0379 C   0  0  2  0  0  0  0  0  0  0  0  0
   56.6686  163.7684   -3.2537 C   0  0  0  0  0  0  0  0  0  0  0  0
   58.8136  158.9303   -3.4414 C   0  0  0  0  0  0  0  0  0  0  0  0
   56.2240  159.4866    0.6014 C   0  0  0  0  0  0  0  0  0  0  0  0
   56.3934  158.7574   -0.7239 C   0  0  0  0  0  0  0  0  0  0  0  0
   55.1149  158.7380   -1.5531 C   0  0  0  0  0  0  0  0  0  0  0  0
   55.2805  158.0168   -2.8166 N   0  0  0  0  0  0  0  0  0  0  0  0
   53.2827  159.3830   -4.3850 N   0  0  0  0  0  0  0  0  0  0  0  0
   54.7011  155.9889   -1.8328 O   0  0  0  0  0  0  0  0  0  0  0  0
   58.4314  161.6462   -3.1858 S   0  0  0  0  0  0  0  0  0  0  0  0
   54.8808  161.5585   -3.8460 H   0  0  0  0  0  0  0  0  0  0  0  0
   56.0377  156.0478   -4.6275 H   0  0  0  0  0  0  0  0  0  0  0  0
   54.8979  154.8808   -3.9900 H   0  0  0  0  0  0  0  0  0  0  0  0
   53.7538  155.6351   -5.8571 H   0  0  0  0  0  0  0  0  0  0  0  0
   52.9997  156.5625   -4.5681 H   0  0  0  0  0  0  0  0  0  0  0  0
   55.1814  157.5123   -6.4955 H   0  0  0  0  0  0  0  0  0  0  0  0
   53.4792  157.9009   -6.6052 H   0  0  0  0  0  0  0  0  0  0  0  0
   56.4608  158.1002   -4.5385 H   0  0  0  0  0  0  0  0  0  0  0  0
   54.8036  159.7583   -5.7464 H   0  0  0  0  0  0  0  0  0  0  0  0
   56.4321  164.0366   -2.2122 H   0  0  0  0  0  0  0  0  0  0  0  0
   57.5657  164.3347   -3.5528 H   0  0  0  0  0  0  0  0  0  0  0  0
   55.8475  164.1343   -3.8916 H   0  0  0  0  0  0  0  0  0  0  0  0
   59.2512  158.7504   -4.4353 H   0  0  0  0  0  0  0  0  0  0  0  0
   59.6395  159.1173   -2.7365 H   0  0  0  0  0  0  0  0  0  0  0  0
   58.3307  157.9970   -3.1098 H   0  0  0  0  0  0  0  0  0  0  0  0
   55.9189  160.5256    0.4412 H   0  0  0  0  0  0  0  0  0  0  0  0
   55.4529  158.9968    1.2048 H   0  0  0  0  0  0  0  0  0  0  0  0
   57.1533  159.4851    1.1793 H   0  0  0  0  0  0  0  0  0  0  0  0
   56.6981  157.7245   -0.5190 H   0  0  0  0  0  0  0  0  0  0  0  0
   57.2039  159.2280   -1.2929 H   0  0  0  0  0  0  0  0  0  0  0  0
   54.3169  158.2337   -0.9991 H   0  0  0  0  0  0  0  0  0  0  0  0
   54.7780  159.7527   -1.7879 H   0  0  0  0  0  0  0  0  0  0  0  0
   52.4261  159.2051   -4.8590 H   0  0  0  0  0  0  0  0  0  0  0  0
   53.3508  159.9997   -3.6071 H   0  0  0  0  0  0  0  0  0  0  0  0
  1  2  1  0  0  0  0
  1  3  2  0  0  0  0
  2  4  2  0  0  0  0
  2  9  1  0  0  0  0
  3 11  1  0  0  0  0
  3 19  1  0  0  0  0
  4 12  1  0  0  0  0
  4 19  1  0  0  0  0
  5  6  1  0  0  0  0
  5 16  1  0  0  0  0
  5 18  2  0  0  0  0
  6  7  1  0  0  0  0
  7  8  1  0  0  0  0
  8 10  1  0  0  0  0
  9 10  1  0  0  0  0
  9 16  1  0  0  0  0
 10 17  1  0  0  0  0
 13 14  1  0  0  0  0
 14 15  1  0  0  0  0
 15 16  1  0  0  0  0
  1 20  1  0  0  0  0
  6 21  1  0  0  0  0
  6 22  1  0  0  0  0
  7 23  1  0  0  0  0
  7 24  1  0  0  0  0
  8 25  1  0  0  0  0
  8 26  1  0  0  0  0
  9 27  1  0  0  0  0
 10 28  1  0  0  0  0
 11 29  1  0  0  0  0
 11 30  1  0  0  0  0
 11 31  1  0  0  0  0
 12 32  1  0  0  0  0
 12 33  1  0  0  0  0
 12 34  1  0  0  0  0
 13 35  1  0  0  0  0
 13 36  1  0  0  0  0
 13 37  1  0  0  0  0
 14 38  1  0  0  0  0
 14 39  1  0  0  0  0
 15 40  1  0  0  0  0
 15 41  1  0  0  0  0
 17 42  1  0  0  0  0
 17 43  1  0  0  0  0
M  END
> <FRED Chemgauss4 score>
-4.799337

$$$$
C20216428	P30109106
  -OEChem-05122015083D

 14 14  0     1  0  0  0  0  0999 V2000
   53.3873  155.9339   -3.9835 C   0  0  0  0  0  0  0  0  0  0  0  0
   55.2443  156.2847   -5.3807 C   0  0  0  0  0  0  0  0  0  0  0  0
   54.7771  156.5037   -3.9459 C   0  0  2  0  0  0  0  0  0  0  0  0
   53.0165  155.9208   -5.3188 N   0  0  0  0  0  0  0  0  0  0  0  0
   54.0120  156.3799   -6.1716 N   0  0  0  0  0  0  0  0  0  0  0  0
   55.5778  155.8027   -2.9592 N   0  0  0  0  0  0  0  0  0  0  0  0
   52.7138  155.5878   -3.0259 O   0  0  0  0  0  0  0  0  0  0  0  0
   55.9894  157.0234   -5.6928 H   0  0  0  0  0  0  0  0  0  0  0  0
   55.6797  155.2872   -5.5221 H   0  0  0  0  0  0  0  0  0  0  0  0
   54.7027  157.5774   -3.7108 H   0  0  0  0  0  0  0  0  0  0  0  0
   52.1249  155.6001   -5.6769 H   0  0  0  0  0  0  0  0  0  0  0  0
   54.0557  155.7100   -6.9400 H   0  0  0  0  0  0  0  0  0  0  0  0
   55.1388  155.5060   -2.1091 H   0  0  0  0  0  0  0  0  0  0  0  0
   56.5748  155.8130   -3.0564 H   0  0  0  0  0  0  0  0  0  0  0  0
  1  3  1  0  0  0  0
  1  4  1  0  0  0  0
  1  7  2  0  0  0  0
  2  3  1  0  0  0  0
  2  5  1  0  0  0  0
  3  6  1  0  0  0  0
  4  5  1  0  0  0  0
  2  8  1  0  0  0  0
  2  9  1  0  0  0  0
  3 10  1  0  0  0  0
  4 11  1  0  0  0  0
  5 12  1  0  0  0  0
  6 13  1  0  0  0  0
  6 14  1  0  0  0  0
M  END
> <FRED Chemgauss4 score>
-4.798526

$$$$
C19504393	P28890989
  -OEChem-05122015083D

 18 17  0     0  0  0  0  0  0999 V2000
   57.5195  157.3695   -4.7789 C   0  0  0  0  0  0  0  0  0  0  0  0
   53.5932  156.0816   -3.5595 C   0  0  0  0  0  0  0  0  0  0  0  0
   56.5601  158.2518   -4.0982 C   0  0  0  0  0  0  0  0  0  0  0  0
   53.0532  155.0549   -4.5220 C   0  0  0  0  0  0  0  0  0  0  0  0
   55.6248  157.4747   -3.1778 C   0  0  0  0  0  0  0  0  0  0  0  0
   58.2775  156.6750   -5.3171 N   0  0  0  0  0  0  0  0  0  0  0  0
   52.3321  155.7305   -5.6106 N   0  0  0  0  0  0  0  0  0  0  0  0
   54.8677  156.4937   -3.9215 N   0  0  0  0  0  0  0  0  0  0  0  0
   52.9665  156.4903   -2.5855 O   0  0  0  0  0  0  0  0  0  0  0  0
   55.9615  158.7743   -4.8534 H   0  0  0  0  0  0  0  0  0  0  0  0
   57.1018  159.0180   -3.5314 H   0  0  0  0  0  0  0  0  0  0  0  0
   53.8793  154.4742   -4.9431 H   0  0  0  0  0  0  0  0  0  0  0  0
   52.3667  154.3820   -3.9998 H   0  0  0  0  0  0  0  0  0  0  0  0
   56.2116  156.9542   -2.4138 H   0  0  0  0  0  0  0  0  0  0  0  0
   54.9341  158.1509   -2.6618 H   0  0  0  0  0  0  0  0  0  0  0  0
   51.6442  155.2082   -6.0993 H   0  0  0  0  0  0  0  0  0  0  0  0
   52.6989  156.5922   -5.9387 H   0  0  0  0  0  0  0  0  0  0  0  0
   55.2897  156.0855   -4.7506 H   0  0  0  0  0  0  0  0  0  0  0  0
  1  3  1  0  0  0  0
  1  6  3  0  0  0  0
  2  4  1  0  0  0  0
  2  8  1  0  0  0  0
  2  9  2  0  0  0  0
  3  5  1  0  0  0  0
  4  7  1  0  0  0  0
  5  8  1  0  0  0  0
  3 10  1  0  0  0  0
  3 11  1  0  0  0  0
  4 12  1  0  0  0  0
  4 13  1  0  0  0  0
  5 14  1  0  0  0  0
  5 15  1  0  0  0  0
  7 16  1  0  0  0  0
  7 17  1  0  0  0  0
  8 18  1  0  0  0  0
M  END
> <FRED Chemgauss4 score>
-4.798217

$$$$
C83918821	P131301165
  -OEChem-05122015083D

 36 35  0     1  0  0  0  0  0999 V2000
   55.4229  155.2870   -6.0145 C   0  0  0  0  0  0  0  0  0  0  0  0
   59.7601  156.4515   -9.2910 C   0  0  0  0  0  0  0  0  0  0  0  0
   55.3033  156.7834   -5.7539 C   0  0  0  0  0  0  0  0  0  0  0  0
   59.1170  159.0303   -6.0824 C   0  0  0  0  0  0  0  0  0  0  0  0
   58.0514  160.0880   -5.8188 C   0  0  0  0  0  0  0  0  0  0  0  0
   55.5965  156.6030   -3.2248 C   0  0  0  0  0  0  0  0  0  0  0  0
   58.9201  158.3264   -7.4182 C   0  0  0  0  0  0  0  0  0  0  0  0
   56.0961  157.2534   -4.5237 C   0  0  2  0  0  0  0  0  0  0  0  0
   54.2070  156.9439   -2.9408 N   0  0  0  0  0  0  0  0  0  0  0  0
   56.6880  159.5280   -5.8143 N   0  0  0  0  0  0  0  0  0  0  0  0
   61.4451  157.7506   -7.7726 O   0  0  0  0  0  0  0  0  0  0  0  0
   59.9370  156.0223   -6.7187 O   0  0  0  0  0  0  0  0  0  0  0  0
   54.5968  159.3868   -4.2971 O   0  0  0  0  0  0  0  0  0  0  0  0
   56.8946  159.3910   -3.2594 O   0  0  0  0  0  0  0  0  0  0  0  0
   60.1538  157.0909   -7.6791 S   0  0  0  0  0  0  0  0  0  0  0  0
   55.9985  159.0235   -4.3372 S   0  0  0  0  0  0  0  0  0  0  0  0
   55.0792  154.6985   -5.1594 H   0  0  0  0  0  0  0  0  0  0  0  0
   54.8061  155.0073   -6.8747 H   0  0  0  0  0  0  0  0  0  0  0  0
   56.4578  155.0079   -6.2359 H   0  0  0  0  0  0  0  0  0  0  0  0
   60.4818  155.6713   -9.5377 H   0  0  0  0  0  0  0  0  0  0  0  0
   58.7493  156.0419   -9.2615 H   0  0  0  0  0  0  0  0  0  0  0  0
   59.8205  157.2697  -10.0102 H   0  0  0  0  0  0  0  0  0  0  0  0
   55.6643  157.3016   -6.6498 H   0  0  0  0  0  0  0  0  0  0  0  0
   54.2434  157.0421   -5.6423 H   0  0  0  0  0  0  0  0  0  0  0  0
   59.0850  158.2886   -5.2749 H   0  0  0  0  0  0  0  0  0  0  0  0
   60.1142  159.4865   -6.0493 H   0  0  0  0  0  0  0  0  0  0  0  0
   58.2144  160.5789   -4.8541 H   0  0  0  0  0  0  0  0  0  0  0  0
   58.0794  160.8529   -6.6011 H   0  0  0  0  0  0  0  0  0  0  0  0
   55.6937  155.5128   -3.2867 H   0  0  0  0  0  0  0  0  0  0  0  0
   56.2148  156.9299   -2.3805 H   0  0  0  0  0  0  0  0  0  0  0  0
   57.9509  157.8208   -7.4622 H   0  0  0  0  0  0  0  0  0  0  0  0
   58.9929  159.0242   -8.2575 H   0  0  0  0  0  0  0  0  0  0  0  0
   57.1620  157.0314   -4.6577 H   0  0  0  0  0  0  0  0  0  0  0  0
   53.9010  156.9203   -1.9914 H   0  0  0  0  0  0  0  0  0  0  0  0
   53.5674  156.9880   -3.7054 H   0  0  0  0  0  0  0  0  0  0  0  0
   56.0557  159.9636   -6.4983 H   0  0  0  0  0  0  0  0  0  0  0  0
  1  3  1  0  0  0  0
  2 15  1  0  0  0  0
  3  8  1  0  0  0  0
  4  5  1  0  0  0  0
  4  7  1  0  0  0  0
  5 10  1  0  0  0  0
  6  8  1  0  0  0  0
  6  9  1  0  0  0  0
  7 15  1  0  0  0  0
  8 16  1  0  0  0  0
 10 16  1  0  0  0  0
 11 15  2  0  0  0  0
 12 15  2  0  0  0  0
 13 16  2  0  0  0  0
 14 16  2  0  0  0  0
  1 17  1  0  0  0  0
  1 18  1  0  0  0  0
  1 19  1  0  0  0  0
  2 20  1  0  0  0  0
  2 21  1  0  0  0  0
  2 22  1  0  0  0  0
  3 23  1  0  0  0  0
  3 24  1  0  0  0  0
  4 25  1  0  0  0  0
  4 26  1  0  0  0  0
  5 27  1  0  0  0  0
  5 28  1  0  0  0  0
  6 29  1  0  0  0  0
  6 30  1  0  0  0  0
  7 31  1  0  0  0  0
  7 32  1  0  0  0  0
  8 33  1  0  0  0  0
  9 34  1  0  0  0  0
  9 35  1  0  0  0  0
 10 36  1  0  0  0  0
M  END
> <FRED Chemgauss4 score>
-4.797963

$$$$
C56659230	P85110673
  -OEChem-05122015083D

 18 18  0     1  0  0  0  0  0999 V2000
   56.1996  156.6362   -6.1360 C   0  0  0  0  0  0  0  0  0  0  0  0
   54.1370  156.5790   -5.6866 C   0  0  0  0  0  0  0  0  0  0  0  0
   54.6673  157.7911   -3.5383 C   0  0  0  0  0  0  0  0  0  0  0  0
   54.7117  157.7983   -5.0253 C   0  0  1  0  0  0  0  0  0  0  0  0
   55.3667  158.9676   -1.4344 C   0  0  0  0  0  0  0  0  0  0  0  0
   56.1315  157.7105   -5.4133 N   0  0  0  0  0  0  0  0  0  0  0  0
   55.0469  155.9229   -6.3304 N   0  0  0  0  0  0  0  0  0  0  0  0
   52.8088  156.2905   -5.5712 N   0  0  0  0  0  0  0  0  0  0  0  0
   55.3022  158.8085   -2.8719 N   0  0  0  0  0  0  0  0  0  0  0  0
   53.8705  156.5783   -2.7005 S   0  0  0  0  0  0  0  0  0  0  0  0
   57.1431  156.2916   -6.5847 H   0  0  0  0  0  0  0  0  0  0  0  0
   54.2533  158.7097   -5.4187 H   0  0  0  0  0  0  0  0  0  0  0  0
   54.5199  159.5634   -1.0839 H   0  0  0  0  0  0  0  0  0  0  0  0
   56.2939  159.4733   -1.1513 H   0  0  0  0  0  0  0  0  0  0  0  0
   55.3366  157.9908   -0.9442 H   0  0  0  0  0  0  0  0  0  0  0  0
   52.2312  156.9052   -5.0401 H   0  0  0  0  0  0  0  0  0  0  0  0
   52.4566  155.4739   -6.0215 H   0  0  0  0  0  0  0  0  0  0  0  0
   55.7685  159.5117   -3.4369 H   0  0  0  0  0  0  0  0  0  0  0  0
  1  6  2  0  0  0  0
  1  7  1  0  0  0  0
  2  4  1  0  0  0  0
  2  7  2  0  0  0  0
  2  8  1  0  0  0  0
  3  4  1  0  0  0  0
  3  9  1  0  0  0  0
  3 10  2  0  0  0  0
  4  6  1  0  0  0  0
  5  9  1  0  0  0  0
  1 11  1  0  0  0  0
  4 12  1  0  0  0  0
  5 13  1  0  0  0  0
  5 14  1  0  0  0  0
  5 15  1  0  0  0  0
  8 16  1  0  0  0  0
  8 17  1  0  0  0  0
  9 18  1  0  0  0  0
M  END
> <FRED Chemgauss4 score>
-4.790959

$$$$
C94338501	P147859251
  -OEChem-05122015083D

 41 43  0     1  0  0  0  0  0999 V2000
   54.6331  155.2278   -4.7631 C   0  0  0  0  0  0  0  0  0  0  0  0
   53.5291  155.5150   -3.9562 C   0  0  0  0  0  0  0  0  0  0  0  0
   59.1323  154.0004   -7.7475 C   0  0  0  0  0  0  0  0  0  0  0  0
   54.6560  157.4604   -3.0376 C   0  0  0  0  0  0  0  0  0  0  0  0
   60.3688  154.4083   -8.1849 C   0  0  0  0  0  0  0  0  0  0  0  0
   55.7389  156.0648   -4.6995 C   0  0  0  0  0  0  0  0  0  0  0  0
   55.7458  157.1726   -3.8468 C   0  0  0  0  0  0  0  0  0  0  0  0
   53.5403  156.6243   -3.0991 C   0  0  0  0  0  0  0  0  0  0  0  0
   58.7015  155.0349   -6.8955 C   0  0  0  0  0  0  0  0  0  0  0  0
   57.0071  156.0199   -5.4210 C   0  0  0  0  0  0  0  0  0  0  0  0
   57.4448  155.0311   -6.2070 C   0  0  0  0  0  0  0  0  0  0  0  0
   57.0438  157.9167   -3.8958 C   0  0  0  0  0  0  0  0  0  0  0  0
   57.7653  157.2832   -5.0959 C   0  0  0  0  0  0  0  0  0  0  0  0
   63.2056  157.8258   -9.3424 C   0  0  0  0  0  0  0  0  0  0  0  0
   63.0143  155.7339   -7.1936 C   0  0  0  0  0  0  0  0  0  0  0  0
   61.9976  156.9094   -9.1951 C   0  0  0  0  0  0  0  0  0  0  0  0
   61.7702  156.4385   -7.7450 C   0  0  1  0  0  0  0  0  0  0  0  0
   59.5919  156.0255   -6.7960 N   0  0  0  0  0  0  0  0  0  0  0  0
   60.5947  155.6152   -7.5911 N   0  0  0  0  0  0  0  0  0  0  0  0
   52.4155  156.8942   -2.2900 N   0  0  0  0  0  0  0  0  0  0  0  0
   54.6077  154.3676   -5.4239 H   0  0  0  0  0  0  0  0  0  0  0  0
   52.6574  154.8661   -4.0014 H   0  0  0  0  0  0  0  0  0  0  0  0
   58.6264  153.0836   -8.0147 H   0  0  0  0  0  0  0  0  0  0  0  0
   54.6782  158.3155   -2.3688 H   0  0  0  0  0  0  0  0  0  0  0  0
   61.0876  153.9525   -8.8516 H   0  0  0  0  0  0  0  0  0  0  0  0
   56.7861  154.1765   -6.3532 H   0  0  0  0  0  0  0  0  0  0  0  0
   56.8938  158.9900   -4.0468 H   0  0  0  0  0  0  0  0  0  0  0  0
   57.6075  157.7527   -2.9709 H   0  0  0  0  0  0  0  0  0  0  0  0
   58.8184  157.0921   -4.8628 H   0  0  0  0  0  0  0  0  0  0  0  0
   57.7243  157.9655   -5.9539 H   0  0  0  0  0  0  0  0  0  0  0  0
   64.1124  157.3438   -8.9632 H   0  0  0  0  0  0  0  0  0  0  0  0
   63.3668  158.0674  -10.3978 H   0  0  0  0  0  0  0  0  0  0  0  0
   63.0633  158.7677   -8.8040 H   0  0  0  0  0  0  0  0  0  0  0  0
   63.2498  154.8237   -7.7553 H   0  0  0  0  0  0  0  0  0  0  0  0
   62.8717  155.4519   -6.1446 H   0  0  0  0  0  0  0  0  0  0  0  0
   63.8865  156.3942   -7.2482 H   0  0  0  0  0  0  0  0  0  0  0  0
   61.1101  157.4226   -9.5836 H   0  0  0  0  0  0  0  0  0  0  0  0
   62.1548  156.0317   -9.8345 H   0  0  0  0  0  0  0  0  0  0  0  0
   61.6110  157.3321   -7.1267 H   0  0  0  0  0  0  0  0  0  0  0  0
   51.6052  156.3153   -2.3742 H   0  0  0  0  0  0  0  0  0  0  0  0
   52.4135  157.7132   -1.7172 H   0  0  0  0  0  0  0  0  0  0  0  0
  1  2  1  0  0  0  0
  1  6  2  0  0  0  0
  2  8  2  0  0  0  0
  3  5  2  0  0  0  0
  3  9  1  0  0  0  0
  4  7  2  0  0  0  0
  4  8  1  0  0  0  0
  5 19  1  0  0  0  0
  6  7  1  0  0  0  0
  6 10  1  0  0  0  0
  7 12  1  0  0  0  0
  8 20  1  0  0  0  0
  9 11  1  0  0  0  0
  9 18  2  0  0  0  0
 10 11  2  0  0  0  0
 10 13  1  0  0  0  0
 12 13  1  0  0  0  0
 14 16  1  0  0  0  0
 15 17  1  0  0  0  0
 16 17  1  0  0  0  0
 17 19  1  0  0  0  0
 18 19  1  0  0  0  0
  1 21  1  0  0  0  0
  2 22  1  0  0  0  0
  3 23  1  0  0  0  0
  4 24  1  0  0  0  0
  5 25  1  0  0  0  0
 11 26  1  0  0  0  0
 12 27  1  0  0  0  0
 12 28  1  0  0  0  0
 13 29  1  0  0  0  0
 13 30  1  0  0  0  0
 14 31  1  0  0  0  0
 14 32  1  0  0  0  0
 14 33  1  0  0  0  0
 15 34  1  0  0  0  0
 15 35  1  0  0  0  0
 15 36  1  0  0  0  0
 16 37  1  0  0  0  0
 16 38  1  0  0  0  0
 17 39  1  0  0  0  0
 20 40  1  0  0  0  0
 20 41  1  0  0  0  0
M  END
> <FRED Chemgauss4 score>
-4.790375

$$$$
C59086297	P89572875
  -OEChem-05122015083D

 19 18  0     1  0  0  0  0  0999 V2000
   55.2685  153.9197   -5.9158 C   0  0  0  0  0  0  0  0  0  0  0  0
   54.8883  155.1139   -5.4472 C   0  0  0  0  0  0  0  0  0  0  0  0
   54.6900  157.3866   -3.3609 C   0  0  0  0  0  0  0  0  0  0  0  0
   53.6881  155.3258   -4.5685 C   0  0  1  0  0  0  0  0  0  0  0  0
   54.0076  156.0212   -3.2298 C   0  0  1  0  0  0  0  0  0  0  0  0
   54.5237  158.2005   -2.1648 N   0  0  0  0  0  0  0  0  0  0  0  0
   52.7612  156.1333   -5.2980 O   0  0  0  0  0  0  0  0  0  0  0  0
   54.8600  155.1874   -2.4388 O   0  0  0  0  0  0  0  0  0  0  0  0
   56.1425  153.8103   -6.5481 H   0  0  0  0  0  0  0  0  0  0  0  0
   54.7041  153.0276   -5.6675 H   0  0  0  0  0  0  0  0  0  0  0  0
   55.4821  155.9855   -5.7113 H   0  0  0  0  0  0  0  0  0  0  0  0
   55.7597  157.2384   -3.5527 H   0  0  0  0  0  0  0  0  0  0  0  0
   54.3056  157.9278   -4.2328 H   0  0  0  0  0  0  0  0  0  0  0  0
   53.1860  154.3703   -4.3771 H   0  0  0  0  0  0  0  0  0  0  0  0
   53.0790  156.1347   -2.6557 H   0  0  0  0  0  0  0  0  0  0  0  0
   54.5840  159.1933   -2.2560 H   0  0  0  0  0  0  0  0  0  0  0  0
   54.5595  157.7470   -1.2754 H   0  0  0  0  0  0  0  0  0  0  0  0
   52.5400  155.6367   -6.0995 H   0  0  0  0  0  0  0  0  0  0  0  0
   54.9519  155.6296   -1.5824 H   0  0  0  0  0  0  0  0  0  0  0  0
  1  2  2  0  0  0  0
  2  4  1  0  0  0  0
  3  5  1  0  0  0  0
  3  6  1  0  0  0  0
  4  5  1  0  0  0  0
  4  7  1  0  0  0  0
  5  8  1  0  0  0  0
  1  9  1  0  0  0  0
  1 10  1  0  0  0  0
  2 11  1  0  0  0  0
  3 12  1  0  0  0  0
  3 13  1  0  0  0  0
  4 14  1  0  0  0  0
  5 15  1  0  0  0  0
  6 16  1  0  0  0  0
  6 17  1  0  0  0  0
  7 18  1  0  0  0  0
  8 19  1  0  0  0  0
M  END
> <FRED Chemgauss4 score>
-4.787122

$$$$
C38034588	P120930303
  -OEChem-05122015083D

 25 26  0     1  0  0  0  0  0999 V2000
   50.2264  160.6995   -7.5297 C   0  0  0  0  0  0  0  0  0  0  0  0
   51.7959  159.4864   -6.9426 C   0  0  0  0  0  0  0  0  0  0  0  0
   54.7242  157.3688   -3.7421 C   0  0  0  0  0  0  0  0  0  0  0  0
   54.9568  156.8567   -5.8708 C   0  0  0  0  0  0  0  0  0  0  0  0
   53.4554  156.5936   -4.0707 C   0  0  0  0  0  0  0  0  0  0  0  0
   53.5685  156.3812   -5.5658 C   0  0  1  0  0  0  0  0  0  0  0  0
   49.0760  161.6069   -7.4547 C   0  0  0  0  0  0  0  0  0  0  0  0
   52.8575  158.6714   -6.2646 C   0  0  0  0  0  0  0  0  0  0  0  0
   50.8639  160.2390   -6.4146 N   0  0  0  0  0  0  0  0  0  0  0  0
   50.7156  160.2712   -8.6972 N   0  0  0  0  0  0  0  0  0  0  0  0
   55.5203  157.4568   -4.7688 N   0  0  0  0  0  0  0  0  0  0  0  0
   52.5720  157.2098   -6.2830 N   0  3  0  0  0  0  0  0  0  0  0  0
   54.8850  157.8048   -2.5864 O   0  5  0  0  0  0  0  0  0  0  0  0
   55.4803  156.7556   -6.9735 O   0  0  0  0  0  0  0  0  0  0  0  0
   51.7785  159.4498   -8.3008 O   0  0  0  0  0  0  0  0  0  0  0  0
   53.4782  155.6344   -3.5395 H   0  0  0  0  0  0  0  0  0  0  0  0
   52.5577  157.1429   -3.7665 H   0  0  0  0  0  0  0  0  0  0  0  0
   53.4180  155.3399   -5.8617 H   0  0  0  0  0  0  0  0  0  0  0  0
   49.3928  162.6661   -7.4634 H   0  0  0  0  0  0  0  0  0  0  0  0
   48.3726  161.4685   -8.2979 H   0  0  0  0  0  0  0  0  0  0  0  0
   48.4749  161.4524   -6.5382 H   0  0  0  0  0  0  0  0  0  0  0  0
   53.8307  158.8079   -6.7483 H   0  0  0  0  0  0  0  0  0  0  0  0
   52.9646  158.9578   -5.2128 H   0  0  0  0  0  0  0  0  0  0  0  0
   52.5066  156.8959   -7.2631 H   0  0  0  0  0  0  0  0  0  0  0  0
   51.6371  157.0481   -5.8790 H   0  0  0  0  0  0  0  0  0  0  0  0
  1  7  1  0  0  0  0
  1  9  1  0  0  0  0
  1 10  2  0  0  0  0
  2  8  1  0  0  0  0
  2  9  2  0  0  0  0
  2 15  1  0  0  0  0
  3  5  1  0  0  0  0
  3 11  2  0  0  0  0
  3 13  1  0  0  0  0
  4  6  1  0  0  0  0
  4 11  1  0  0  0  0
  4 14  2  0  0  0  0
  5  6  1  0  0  0  0
  6 12  1  0  0  0  0
  8 12  1  0  0  0  0
 10 15  1  0  0  0  0
  5 16  1  0  0  0  0
  5 17  1  0  0  0  0
  6 18  1  0  0  0  0
  7 19  1  0  0  0  0
  7 20  1  0  0  0  0
  7 21  1  0  0  0  0
  8 22  1  0  0  0  0
  8 23  1  0  0  0  0
 12 24  1  0  0  0  0
 12 25  1  0  0  0  0
M  CHG  2  12   1  13  -1
M  END
> <FRED Chemgauss4 score>
-4.786745

$$$$
C39113384	P151023224
  -OEChem-05122015083D

 15 16  0     0  0  0  0  0  0999 V2000
   55.1558  156.0302   -2.4845 C   0  0  0  0  0  0  0  0  0  0  0  0
   54.7300  156.3635   -3.7406 C   0  0  0  0  0  0  0  0  0  0  0  0
   53.3343  156.3705   -3.6886 C   0  0  0  0  0  0  0  0  0  0  0  0
   54.7535  156.9626   -6.0470 C   0  0  0  0  0  0  0  0  0  0  0  0
   53.2251  156.9755   -6.0084 C   0  0  0  0  0  0  0  0  0  0  0  0
   52.8742  156.0612   -2.4740 N   0  0  0  0  0  0  0  0  0  0  0  0
   54.0049  155.8594   -1.7637 N   0  0  0  0  0  0  0  0  0  0  0  0
   55.4335  156.6495   -4.8805 N   0  0  0  0  0  0  0  0  0  0  0  0
   52.5950  156.6732   -4.8104 N   0  0  0  0  0  0  0  0  0  0  0  0
   55.2926  157.2315   -7.1146 O   0  0  0  0  0  0  0  0  0  0  0  0
   52.6391  157.2543   -7.0486 O   0  0  0  0  0  0  0  0  0  0  0  0
   56.1326  155.9005   -2.0410 H   0  0  0  0  0  0  0  0  0  0  0  0
   53.9176  155.6069   -0.7873 H   0  0  0  0  0  0  0  0  0  0  0  0
   56.4481  156.6321   -4.8711 H   0  0  0  0  0  0  0  0  0  0  0  0
   51.5831  156.6693   -4.7379 H   0  0  0  0  0  0  0  0  0  0  0  0
  1  2  2  0  0  0  0
  1  7  1  0  0  0  0
  2  3  1  0  0  0  0
  2  8  1  0  0  0  0
  3  6  2  0  0  0  0
  3  9  1  0  0  0  0
  4  5  1  0  0  0  0
  4  8  1  0  0  0  0
  4 10  2  0  0  0  0
  5  9  1  0  0  0  0
  5 11  2  0  0  0  0
  6  7  1  0  0  0  0
  1 12  1  0  0  0  0
  7 13  1  0  0  0  0
  8 14  1  0  0  0  0
  9 15  1  0  0  0  0
M  END
> <FRED Chemgauss4 score>
-4.780176

$$$$
C87588531	P137003168
  -OEChem-05122015083D

 25 26  0     1  0  0  0  0  0999 V2000
   55.7986  157.9858   -4.0621 C   0  0  0  0  0  0  0  0  0  0  0  0
   53.9421  156.8823   -3.8501 C   0  0  0  0  0  0  0  0  0  0  0  0
   58.1272  158.8779   -3.6010 C   0  0  0  0  0  0  0  0  0  0  0  0
   59.3512  158.4323   -3.9037 C   0  0  0  0  0  0  0  0  0  0  0  0
   57.8722  157.3781   -5.4149 C   0  0  0  0  0  0  0  0  0  0  0  0
   57.1147  158.4657   -4.6292 C   0  0  1  0  0  0  0  0  0  0  0  0
   59.3686  157.6369   -5.1716 C   0  0  1  0  0  0  0  0  0  0  0  0
   55.2185  158.3978   -2.9575 N   0  0  0  0  0  0  0  0  0  0  0  0
   54.0373  157.6957   -2.8226 N   0  0  0  0  0  0  0  0  0  0  0  0
   55.0296  157.0316   -4.6562 N   0  0  0  0  0  0  0  0  0  0  0  0
   52.9682  155.9964   -4.1596 N   0  0  0  0  0  0  0  0  0  0  0  0
   59.9789  158.3867   -6.2633 N   0  0  0  0  0  0  0  0  0  0  0  0
   55.3120  156.3448   -5.8596 N   0  0  0  0  0  0  0  0  0  0  0  0
   57.8915  159.4548   -2.7223 H   0  0  0  0  0  0  0  0  0  0  0  0
   60.2196  158.5886   -3.2759 H   0  0  0  0  0  0  0  0  0  0  0  0
   57.5909  156.3550   -5.1384 H   0  0  0  0  0  0  0  0  0  0  0  0
   57.6322  157.4914   -6.4820 H   0  0  0  0  0  0  0  0  0  0  0  0
   56.8956  159.3210   -5.3010 H   0  0  0  0  0  0  0  0  0  0  0  0
   59.9130  156.7204   -5.0121 H   0  0  0  0  0  0  0  0  0  0  0  0
   52.1618  155.8334   -3.5408 H   0  0  0  0  0  0  0  0  0  0  0  0
   53.0346  155.3769   -4.9791 H   0  0  0  0  0  0  0  0  0  0  0  0
   59.7277  158.1483   -7.2007 H   0  0  0  0  0  0  0  0  0  0  0  0
   60.7679  158.9649   -6.0584 H   0  0  0  0  0  0  0  0  0  0  0  0
   55.8503  156.9056   -6.5281 H   0  0  0  0  0  0  0  0  0  0  0  0
   54.4657  156.0727   -6.3706 H   0  0  0  0  0  0  0  0  0  0  0  0
  1  6  1  0  0  0  0
  1  8  2  0  0  0  0
  1 10  1  0  0  0  0
  2  9  2  0  0  0  0
  2 10  1  0  0  0  0
  2 11  1  0  0  0  0
  3  4  2  0  0  0  0
  3  6  1  0  0  0  0
  4  7  1  0  0  0  0
  5  6  1  0  0  0  0
  5  7  1  0  0  0  0
  7 12  1  0  0  0  0
  8  9  1  0  0  0  0
 10 13  1  0  0  0  0
  3 14  1  0  0  0  0
  4 15  1  0  0  0  0
  5 16  1  0  0  0  0
  5 17  1  0  0  0  0
  6 18  1  0  0  0  0
  7 19  1  0  0  0  0
 11 20  1  0  0  0  0
 11 21  1  0  0  0  0
 12 22  1  0  0  0  0
 12 23  1  0  0  0  0
 13 24  1  0  0  0  0
 13 25  1  0  0  0  0
M  END
> <FRED Chemgauss4 score>
-4.775851

$$$$
C40537714	P61555778
  -OEChem-05122015083D

 13 13  0     0  0  0  0  0  0999 V2000
   54.8692  156.3546   -3.3900 C   0  0  0  0  0  0  0  0  0  0  0  0
   53.5225  155.7919   -3.7957 C   0  0  0  0  0  0  0  0  0  0  0  0
   54.8558  156.2305   -5.4966 C   0  0  0  0  0  0  0  0  0  0  0  0
   55.6282  156.5960   -4.5188 N   0  0  0  0  0  0  0  0  0  0  0  0
   55.1667  156.2824   -6.7768 N   0  5  0  0  0  0  0  0  0  0  0  0
   53.6253  155.7566   -5.1485 N   0  0  0  0  0  0  0  0  0  0  0  0
   56.5048  156.8071   -6.9892 N   0  3  0  0  0  0  0  0  0  0  0  0
   55.1548  156.5337   -2.2203 O   0  0  0  0  0  0  0  0  0  0  0  0
   52.6489  155.4844   -3.0197 O   0  0  0  0  0  0  0  0  0  0  0  0
   52.9111  155.4334   -5.7902 H   0  0  0  0  0  0  0  0  0  0  0  0
   56.5707  157.7623   -6.6165 H   0  0  0  0  0  0  0  0  0  0  0  0
   56.6973  156.8272   -7.9980 H   0  0  0  0  0  0  0  0  0  0  0  0
   57.1965  156.2034   -6.5276 H   0  0  0  0  0  0  0  0  0  0  0  0
  1  2  1  0  0  0  0
  1  4  1  0  0  0  0
  1  8  2  0  0  0  0
  2  6  1  0  0  0  0
  2  9  2  0  0  0  0
  3  4  2  0  0  0  0
  3  5  1  0  0  0  0
  3  6  1  0  0  0  0
  5  7  1  0  0  0  0
  6 10  1  0  0  0  0
  7 11  1  0  0  0  0
  7 12  1  0  0  0  0
  7 13  1  0  0  0  0
M  CHG  2   5  -1   7   1
M  END
> <FRED Chemgauss4 score>
-4.770222

$$$$
C01391262	P05902105
  -OEChem-05122015083D

 16 16  0     0  0  0  0  0  0999 V2000
   56.0410  155.9189   -4.8309 C   0  0  0  0  0  0  0  0  0  0  0  0
   54.0556  156.3168   -3.3532 C   0  0  0  0  0  0  0  0  0  0  0  0
   54.3304  158.6020   -4.4241 C   0  0  0  0  0  0  0  0  0  0  0  0
   55.5405  156.0675   -3.4214 C   0  0  0  0  0  0  0  0  0  0  0  0
   55.7307  157.0224   -5.8089 C   0  0  0  0  0  0  0  0  0  0  0  0
   53.6151  157.5411   -3.8618 N   0  0  0  0  0  0  0  0  0  0  0  0
   55.4637  158.2870   -5.1486 N   0  0  0  0  0  0  0  0  0  0  0  0
   56.5963  154.8842   -5.2029 O   0  0  0  0  0  0  0  0  0  0  0  0
   53.2922  155.5045   -2.8298 O   0  0  0  0  0  0  0  0  0  0  0  0
   53.9835  159.7729   -4.2440 O   0  0  0  0  0  0  0  0  0  0  0  0
   55.7623  155.1440   -2.8741 H   0  0  0  0  0  0  0  0  0  0  0  0
   56.0850  156.8741   -2.9198 H   0  0  0  0  0  0  0  0  0  0  0  0
   56.5891  157.1692   -6.4703 H   0  0  0  0  0  0  0  0  0  0  0  0
   54.8476  156.7414   -6.3907 H   0  0  0  0  0  0  0  0  0  0  0  0
   52.6093  157.6837   -3.8152 H   0  0  0  0  0  0  0  0  0  0  0  0
   56.1758  159.0068   -5.2263 H   0  0  0  0  0  0  0  0  0  0  0  0
  1  4  1  0  0  0  0
  1  5  1  0  0  0  0
  1  8  2  0  0  0  0
  2  4  1  0  0  0  0
  2  6  1  0  0  0  0
  2  9  2  0  0  0  0
  3  6  1  0  0  0  0
  3  7  1  0  0  0  0
  3 10  2  0  0  0  0
  5  7  1  0  0  0  0
  4 11  1  0  0  0  0
  4 12  1  0  0  0  0
  5 13  1  0  0  0  0
  5 14  1  0  0  0  0
  6 15  1  0  0  0  0
  7 16  1  0  0  0  0
M  END
> <FRED Chemgauss4 score>
-4.769034

$$$$
C85253675	P133384185
  -OEChem-05122015083D

 22 21  0     1  0  0  0  0  0999 V2000
   57.3880  154.9765   -6.4170 C   0  0  0  0  0  0  0  0  0  0  0  0
   53.9973  157.2929   -3.3800 C   0  0  0  0  0  0  0  0  0  0  0  0
   56.3547  155.9989   -6.5710 C   0  0  0  0  0  0  0  0  0  0  0  0
   55.5146  155.5660   -4.3648 C   0  0  0  0  0  0  0  0  0  0  0  0
   53.0289  155.0417   -3.9633 C   0  0  0  0  0  0  0  0  0  0  0  0
   54.2789  155.7886   -3.4747 C   0  0  2  0  0  0  0  0  0  0  0  0
   58.2103  154.1665   -6.2974 N   0  0  0  0  0  0  0  0  0  0  0  0
   55.1791  155.6758   -5.7668 N   0  0  0  0  0  0  0  0  0  0  0  0
   52.3833  155.7577   -5.0046 O   0  0  0  0  0  0  0  0  0  0  0  0
   54.5758  155.3433   -2.1480 O   0  0  0  0  0  0  0  0  0  0  0  0
   53.1204  157.4862   -2.7509 H   0  0  0  0  0  0  0  0  0  0  0  0
   54.8484  157.8439   -2.9670 H   0  0  0  0  0  0  0  0  0  0  0  0
   53.7636  157.7081   -4.3673 H   0  0  0  0  0  0  0  0  0  0  0  0
   56.7180  156.9784   -6.2472 H   0  0  0  0  0  0  0  0  0  0  0  0
   56.0311  156.0782   -7.6127 H   0  0  0  0  0  0  0  0  0  0  0  0
   55.9579  154.5811   -4.1822 H   0  0  0  0  0  0  0  0  0  0  0  0
   56.2781  156.3204   -4.1435 H   0  0  0  0  0  0  0  0  0  0  0  0
   52.3158  154.8861   -3.1461 H   0  0  0  0  0  0  0  0  0  0  0  0
   53.2990  154.0462   -4.3350 H   0  0  0  0  0  0  0  0  0  0  0  0
   54.4792  156.4105   -5.8988 H   0  0  0  0  0  0  0  0  0  0  0  0
   51.6069  155.2360   -5.2667 H   0  0  0  0  0  0  0  0  0  0  0  0
   55.3522  155.8456   -1.8611 H   0  0  0  0  0  0  0  0  0  0  0  0
  1  3  1  0  0  0  0
  1  7  3  0  0  0  0
  2  6  1  0  0  0  0
  3  8  1  0  0  0  0
  4  6  1  0  0  0  0
  4  8  1  0  0  0  0
  5  6  1  0  0  0  0
  5  9  1  0  0  0  0
  6 10  1  0  0  0  0
  2 11  1  0  0  0  0
  2 12  1  0  0  0  0
  2 13  1  0  0  0  0
  3 14  1  0  0  0  0
  3 15  1  0  0  0  0
  4 16  1  0  0  0  0
  4 17  1  0  0  0  0
  5 18  1  0  0  0  0
  5 19  1  0  0  0  0
  8 20  1  0  0  0  0
  9 21  1  0  0  0  0
 10 22  1  0  0  0  0
M  END
> <FRED Chemgauss4 score>
-4.763708

$$$$
C39077974	P59214167
  -OEChem-05122015083D

 21 20  0     0  0  0  0  0  0999 V2000
   54.9048  156.3512   -3.2652 C   0  0  0  0  0  0  0  0  0  0  0  0
   56.3879  157.0835   -6.1114 C   0  0  0  0  0  0  0  0  0  0  0  0
   56.5942  156.0347   -5.0314 C   0  0  0  0  0  0  0  0  0  0  0  0
   54.5952  154.5624   -4.9606 C   0  0  0  0  0  0  0  0  0  0  0  0
   53.6233  155.0941   -5.9981 C   0  0  0  0  0  0  0  0  0  0  0  0
   55.8366  158.3033   -5.5852 N   0  0  0  0  0  0  0  0  0  0  0  0
   55.3590  155.6696   -4.3923 N   0  0  0  0  0  0  0  0  0  0  0  0
   53.8799  156.1504   -2.6230 O   0  0  0  0  0  0  0  0  0  0  0  0
   52.7108  155.9893   -5.3753 O   0  0  0  0  0  0  0  0  0  0  0  0
   55.6007  157.1546   -2.9725 H   0  0  0  0  0  0  0  0  0  0  0  0
   55.7068  156.7261   -6.8903 H   0  0  0  0  0  0  0  0  0  0  0  0
   57.3456  157.3381   -6.5760 H   0  0  0  0  0  0  0  0  0  0  0  0
   57.0137  155.1218   -5.4651 H   0  0  0  0  0  0  0  0  0  0  0  0
   57.2744  156.3932   -4.2522 H   0  0  0  0  0  0  0  0  0  0  0  0
   54.0681  154.0556   -4.1460 H   0  0  0  0  0  0  0  0  0  0  0  0
   55.2994  153.8632   -5.4215 H   0  0  0  0  0  0  0  0  0  0  0  0
   53.0468  154.2695   -6.4288 H   0  0  0  0  0  0  0  0  0  0  0  0
   54.1433  155.6244   -6.8024 H   0  0  0  0  0  0  0  0  0  0  0  0
   55.1260  158.2538   -4.8727 H   0  0  0  0  0  0  0  0  0  0  0  0
   56.0123  159.1699   -6.0681 H   0  0  0  0  0  0  0  0  0  0  0  0
   52.1103  156.3044   -6.0699 H   0  0  0  0  0  0  0  0  0  0  0  0
  1  7  1  0  0  0  0
  1  8  2  0  0  0  0
  2  3  1  0  0  0  0
  2  6  1  0  0  0  0
  3  7  1  0  0  0  0
  4  5  1  0  0  0  0
  4  7  1  0  0  0  0
  5  9  1  0  0  0  0
  1 10  1  0  0  0  0
  2 11  1  0  0  0  0
  2 12  1  0  0  0  0
  3 13  1  0  0  0  0
  3 14  1  0  0  0  0
  4 15  1  0  0  0  0
  4 16  1  0  0  0  0
  5 17  1  0  0  0  0
  5 18  1  0  0  0  0
  6 19  1  0  0  0  0
  6 20  1  0  0  0  0
  9 21  1  0  0  0  0
M  END
> <FRED Chemgauss4 score>
-4.759884

$$$$
C72230870	P112219379
  -OEChem-05122015083D

 16 16  0     0  0  0  0  0  0999 V2000
   56.4523  158.3459   -4.0779 C   0  0  0  0  0  0  0  0  0  0  0  0
   56.5002  157.9968   -2.7318 C   0  0  0  0  0  0  0  0  0  0  0  0
   55.3876  157.9213   -4.8672 C   0  0  0  0  0  0  0  0  0  0  0  0
   55.4741  157.2256   -2.2045 C   0  0  0  0  0  0  0  0  0  0  0  0
   54.3898  157.1519   -4.2859 C   0  0  0  0  0  0  0  0  0  0  0  0
   54.4608  156.8301   -2.9870 N   0  3  0  0  0  0  0  0  0  0  0  0
   53.3305  156.7777   -6.4446 N   0  0  0  0  0  0  0  0  0  0  0  0
   53.3041  156.7131   -5.0708 N   0  0  0  0  0  0  0  0  0  0  0  0
   53.5302  156.1157   -2.4550 O   0  5  0  0  0  0  0  0  0  0  0  0
   57.2443  158.9490   -4.5119 H   0  0  0  0  0  0  0  0  0  0  0  0
   57.3245  158.3215   -2.1058 H   0  0  0  0  0  0  0  0  0  0  0  0
   55.3496  158.1934   -5.9176 H   0  0  0  0  0  0  0  0  0  0  0  0
   55.4347  156.9117   -1.1720 H   0  0  0  0  0  0  0  0  0  0  0  0
   53.0016  155.8865   -6.8130 H   0  0  0  0  0  0  0  0  0  0  0  0
   54.3000  156.8660   -6.7462 H   0  0  0  0  0  0  0  0  0  0  0  0
   52.5903  156.1542   -4.6248 H   0  0  0  0  0  0  0  0  0  0  0  0
  1  2  1  0  0  0  0
  1  3  2  0  0  0  0
  2  4  2  0  0  0  0
  3  5  1  0  0  0  0
  4  6  1  0  0  0  0
  5  6  2  0  0  0  0
  5  8  1  0  0  0  0
  6  9  1  0  0  0  0
  7  8  1  0  0  0  0
  1 10  1  0  0  0  0
  2 11  1  0  0  0  0
  3 12  1  0  0  0  0
  4 13  1  0  0  0  0
  7 14  1  0  0  0  0
  7 15  1  0  0  0  0
  8 16  1  0  0  0  0
M  CHG  2   6   1   9  -1
M  END
> <FRED Chemgauss4 score>
-4.757363

$$$$
C31992619	P138009253
  -OEChem-05122015083D

 21 22  0     1  0  0  0  0  0999 V2000
   55.8154  156.7369   -5.6370 C   0  0  0  0  0  0  0  0  0  0  0  0
   55.0253  156.1605   -3.5455 C   0  0  0  0  0  0  0  0  0  0  0  0
   55.9566  157.9841   -4.8096 C   0  0  0  0  0  0  0  0  0  0  0  0
   54.6361  154.1024   -6.6853 C   0  0  0  0  0  0  0  0  0  0  0  0
   56.0388  153.7432   -6.2892 C   0  0  0  0  0  0  0  0  0  0  0  0
   55.3197  157.6358   -3.4725 C   0  0  1  0  0  0  0  0  0  0  0  0
   55.1157  154.3804   -5.2869 C   0  0  0  0  0  0  0  0  0  0  0  0
   55.3322  155.7369   -4.8215 N   0  0  0  0  0  0  0  0  0  0  0  0
   54.0637  158.2963   -3.2546 N   0  0  0  0  0  0  0  0  0  0  0  0
   56.1122  156.6637   -6.8216 O   0  0  0  0  0  0  0  0  0  0  0  0
   54.5334  155.5058   -2.6362 O   0  0  0  0  0  0  0  0  0  0  0  0
   57.0214  158.2093   -4.6882 H   0  0  0  0  0  0  0  0  0  0  0  0
   55.4748  158.8269   -5.3151 H   0  0  0  0  0  0  0  0  0  0  0  0
   54.5021  154.9383   -7.3611 H   0  0  0  0  0  0  0  0  0  0  0  0
   53.9278  153.2949   -6.8244 H   0  0  0  0  0  0  0  0  0  0  0  0
   56.2741  152.6938   -6.1614 H   0  0  0  0  0  0  0  0  0  0  0  0
   56.8451  154.3383   -6.7001 H   0  0  0  0  0  0  0  0  0  0  0  0
   56.0060  157.8264   -2.6445 H   0  0  0  0  0  0  0  0  0  0  0  0
   54.7322  153.7364   -4.5030 H   0  0  0  0  0  0  0  0  0  0  0  0
   53.9863  159.2595   -3.5064 H   0  0  0  0  0  0  0  0  0  0  0  0
   53.3842  157.8418   -2.6810 H   0  0  0  0  0  0  0  0  0  0  0  0
  1  3  1  0  0  0  0
  1  8  1  0  0  0  0
  1 10  2  0  0  0  0
  2  6  1  0  0  0  0
  2  8  1  0  0  0  0
  2 11  2  0  0  0  0
  3  6  1  0  0  0  0
  4  5  1  0  0  0  0
  4  7  1  0  0  0  0
  5  7  1  0  0  0  0
  6  9  1  0  0  0  0
  7  8  1  0  0  0  0
  3 12  1  0  0  0  0
  3 13  1  0  0  0  0
  4 14  1  0  0  0  0
  4 15  1  0  0  0  0
  5 16  1  0  0  0  0
  5 17  1  0  0  0  0
  6 18  1  0  0  0  0
  7 19  1  0  0  0  0
  9 20  1  0  0  0  0
  9 21  1  0  0  0  0
M  END
> <FRED Chemgauss4 score>
-4.756310

$$$$
C40605671	P61647454
  -OEChem-05122015083D

 24 24  0     0  0  0  0  0  0999 V2000
   59.3418  154.9155   -6.8943 C   0  0  0  0  0  0  0  0  0  0  0  0
   58.0735  154.4541   -6.6313 C   0  0  0  0  0  0  0  0  0  0  0  0
   58.0621  156.5988   -7.1379 C   0  0  0  0  0  0  0  0  0  0  0  0
   55.3755  155.1504   -5.2384 C   0  0  0  0  0  0  0  0  0  0  0  0
   55.8151  155.5764   -6.6228 C   0  0  0  0  0  0  0  0  0  0  0  0
   53.3914  156.2452   -2.8173 C   0  0  0  0  0  0  0  0  0  0  0  0
   54.8944  156.1102   -2.9947 C   0  0  0  0  0  0  0  0  0  0  0  0
   59.3279  156.2513   -7.2087 N   0  0  0  0  0  0  0  0  0  0  0  0
   57.2647  155.5439   -6.7909 N   0  0  0  0  0  0  0  0  0  0  0  0
   52.9004  157.5109   -3.2921 N   0  0  0  0  0  0  0  0  0  0  0  0
   55.2894  156.2357   -4.3786 N   0  0  0  0  0  0  0  0  0  0  0  0
   55.1329  153.9857   -4.9338 O   0  0  0  0  0  0  0  0  0  0  0  0
   60.2641  154.3536   -6.8732 H   0  0  0  0  0  0  0  0  0  0  0  0
   57.6916  153.4813   -6.3548 H   0  0  0  0  0  0  0  0  0  0  0  0
   57.6675  157.5883   -7.3246 H   0  0  0  0  0  0  0  0  0  0  0  0
   55.4720  156.5978   -6.8227 H   0  0  0  0  0  0  0  0  0  0  0  0
   55.3714  154.9137   -7.3743 H   0  0  0  0  0  0  0  0  0  0  0  0
   53.1040  156.1569   -1.7647 H   0  0  0  0  0  0  0  0  0  0  0  0
   52.8743  155.4663   -3.3862 H   0  0  0  0  0  0  0  0  0  0  0  0
   55.4136  156.8976   -2.4397 H   0  0  0  0  0  0  0  0  0  0  0  0
   55.2526  155.1395   -2.6371 H   0  0  0  0  0  0  0  0  0  0  0  0
   53.4437  158.3426   -3.1246 H   0  0  0  0  0  0  0  0  0  0  0  0
   51.9431  157.5827   -3.5981 H   0  0  0  0  0  0  0  0  0  0  0  0
   55.5447  157.1592   -4.7160 H   0  0  0  0  0  0  0  0  0  0  0  0
  1  2  2  0  0  0  0
  1  8  1  0  0  0  0
  2  9  1  0  0  0  0
  3  8  2  0  0  0  0
  3  9  1  0  0  0  0
  4  5  1  0  0  0  0
  4 11  1  0  0  0  0
  4 12  2  0  0  0  0
  5  9  1  0  0  0  0
  6  7  1  0  0  0  0
  6 10  1  0  0  0  0
  7 11  1  0  0  0  0
  1 13  1  0  0  0  0
  2 14  1  0  0  0  0
  3 15  1  0  0  0  0
  5 16  1  0  0  0  0
  5 17  1  0  0  0  0
  6 18  1  0  0  0  0
  6 19  1  0  0  0  0
  7 20  1  0  0  0  0
  7 21  1  0  0  0  0
 10 22  1  0  0  0  0
 10 23  1  0  0  0  0
 11 24  1  0  0  0  0
M  END
> <FRED Chemgauss4 score>
-4.755831

$$$$
C69692471	P107338218
  -OEChem-05122015083D

 26 25  0     0  0  0  0  0  0999 V2000
   55.6509  156.1734   -4.1083 C   0  0  0  0  0  0  0  0  0  0  0  0
   57.3233  155.6555   -5.9025 C   0  0  0  0  0  0  0  0  0  0  0  0
   55.5734  160.3116   -3.6039 C   0  0  0  0  0  0  0  0  0  0  0  0
   56.0541  157.6311   -4.1625 C   0  0  0  0  0  0  0  0  0  0  0  0
   54.3327  154.5928   -6.7265 C   0  0  0  0  0  0  0  0  0  0  0  0
   55.3344  154.2225   -5.6457 C   0  0  0  0  0  0  0  0  0  0  0  0
   53.3791  155.5686   -6.2715 N   0  0  0  0  0  0  0  0  0  0  0  0
   56.0852  155.3809   -5.1770 N   0  0  0  0  0  0  0  0  0  0  0  0
   54.9798  155.7367   -3.1700 O   0  0  0  0  0  0  0  0  0  0  0  0
   53.6458  158.6469   -4.1921 O   0  0  0  0  0  0  0  0  0  0  0  0
   54.8373  158.3998   -1.9805 O   0  0  0  0  0  0  0  0  0  0  0  0
   54.8669  158.6914   -3.4044 S   0  0  0  0  0  0  0  0  0  0  0  0
   58.1579  155.1267   -5.4349 H   0  0  0  0  0  0  0  0  0  0  0  0
   57.5367  156.7278   -5.8937 H   0  0  0  0  0  0  0  0  0  0  0  0
   57.2343  155.3244   -6.9407 H   0  0  0  0  0  0  0  0  0  0  0  0
   54.8953  161.0404   -3.1572 H   0  0  0  0  0  0  0  0  0  0  0  0
   56.5407  160.3299   -3.0996 H   0  0  0  0  0  0  0  0  0  0  0  0
   55.6943  160.5055   -4.6707 H   0  0  0  0  0  0  0  0  0  0  0  0
   56.1447  157.9594   -5.2013 H   0  0  0  0  0  0  0  0  0  0  0  0
   56.9939  157.7831   -3.6251 H   0  0  0  0  0  0  0  0  0  0  0  0
   53.7690  153.7177   -7.0653 H   0  0  0  0  0  0  0  0  0  0  0  0
   54.8513  155.0275   -7.5867 H   0  0  0  0  0  0  0  0  0  0  0  0
   54.8171  153.8022   -4.7777 H   0  0  0  0  0  0  0  0  0  0  0  0
   56.0585  153.4859   -6.0084 H   0  0  0  0  0  0  0  0  0  0  0  0
   53.0160  155.5005   -5.3341 H   0  0  0  0  0  0  0  0  0  0  0  0
   52.9374  156.1745   -6.9445 H   0  0  0  0  0  0  0  0  0  0  0  0
  1  4  1  0  0  0  0
  1  8  1  0  0  0  0
  1  9  2  0  0  0  0
  2  8  1  0  0  0  0
  3 12  1  0  0  0  0
  4 12  1  0  0  0  0
  5  6  1  0  0  0  0
  5  7  1  0  0  0  0
  6  8  1  0  0  0  0
 10 12  2  0  0  0  0
 11 12  2  0  0  0  0
  2 13  1  0  0  0  0
  2 14  1  0  0  0  0
  2 15  1  0  0  0  0
  3 16  1  0  0  0  0
  3 17  1  0  0  0  0
  3 18  1  0  0  0  0
  4 19  1  0  0  0  0
  4 20  1  0  0  0  0
  5 21  1  0  0  0  0
  5 22  1  0  0  0  0
  6 23  1  0  0  0  0
  6 24  1  0  0  0  0
  7 25  1  0  0  0  0
  7 26  1  0  0  0  0
M  END
> <FRED Chemgauss4 score>
-4.754352

$$$$
C39060572	P59188184
  -OEChem-05122015083D

 19 19  0     1  0  0  0  0  0999 V2000
   54.3156  155.1976   -5.4904 C   0  0  0  0  0  0  0  0  0  0  0  0
   53.3961  155.2317   -4.5181 C   0  0  0  0  0  0  0  0  0  0  0  0
   53.7923  155.7896   -3.2043 C   0  0  0  0  0  0  0  0  0  0  0  0
   55.7398  155.6392   -5.3153 C   0  0  1  0  0  0  0  0  0  0  0  0
   55.2244  156.2631   -3.0442 C   0  0  1  0  0  0  0  0  0  0  0  0
   56.0156  156.9723   -6.0029 C   0  0  0  0  0  0  0  0  0  0  0  0
   52.9690  155.9021   -2.2981 O   0  0  0  0  0  0  0  0  0  0  0  0
   56.1394  155.6673   -3.9433 O   0  0  0  0  0  0  0  0  0  0  0  0
   52.0953  154.8177   -4.6785 O   0  0  0  0  0  0  0  0  0  0  0  0
   55.2246  157.6790   -3.0857 O   0  0  0  0  0  0  0  0  0  0  0  0
   54.8971  157.8197   -5.8110 O   0  0  0  0  0  0  0  0  0  0  0  0
   54.0225  154.8205   -6.4736 H   0  0  0  0  0  0  0  0  0  0  0  0
   56.3908  154.8593   -5.8338 H   0  0  0  0  0  0  0  0  0  0  0  0
   55.5331  156.0103   -1.9884 H   0  0  0  0  0  0  0  0  0  0  0  0
   56.1695  156.8165   -7.0711 H   0  0  0  0  0  0  0  0  0  0  0  0
   56.8999  157.4404   -5.5693 H   0  0  0  0  0  0  0  0  0  0  0  0
   51.6072  154.9286   -3.8540 H   0  0  0  0  0  0  0  0  0  0  0  0
   54.6661  157.9861   -2.3513 H   0  0  0  0  0  0  0  0  0  0  0  0
   55.0966  158.6604   -6.2570 H   0  0  0  0  0  0  0  0  0  0  0  0
  1  2  2  0  0  0  0
  1  4  1  0  0  0  0
  2  3  1  0  0  0  0
  2  9  1  0  0  0  0
  3  5  1  0  0  0  0
  3  7  2  0  0  0  0
  4  6  1  0  0  0  0
  4  8  1  0  0  0  0
  5  8  1  0  0  0  0
  5 10  1  0  0  0  0
  6 11  1  0  0  0  0
  1 12  1  0  0  0  0
  4 13  1  0  0  0  0
  5 14  1  0  0  0  0
  6 15  1  0  0  0  0
  6 16  1  0  0  0  0
  9 17  1  0  0  0  0
 10 18  1  0  0  0  0
 11 19  1  0  0  0  0
M  END
> <FRED Chemgauss4 score>
-4.750794

$$$$
C04786584	P06903634
  -OEChem-05122015083D

 16 16  0     1  0  0  0  0  0999 V2000
   55.8507  156.1116   -5.0927 C   0  0  0  0  0  0  0  0  0  0  0  0
   55.8835  157.0766   -3.9439 C   0  0  0  0  0  0  0  0  0  0  0  0
   54.6780  155.1848   -5.2631 C   0  0  0  0  0  0  0  0  0  0  0  0
   54.8040  157.0367   -2.8970 C   0  0  0  0  0  0  0  0  0  0  0  0
   53.4798  155.4829   -4.3838 C   0  0  2  0  0  0  0  0  0  0  0  0
   53.8873  155.8309   -2.9530 C   0  0  2  0  0  0  0  0  0  0  0  0
   56.7785  156.0722   -5.8796 O   0  0  0  0  0  0  0  0  0  0  0  0
   56.7784  157.8982   -3.8661 O   0  0  0  0  0  0  0  0  0  0  0  0
   54.7494  154.2963   -6.0971 O   0  0  0  0  0  0  0  0  0  0  0  0
   54.7543  157.9347   -2.0716 O   0  0  0  0  0  0  0  0  0  0  0  0
   52.6627  154.3212   -4.3594 O   0  0  0  0  0  0  0  0  0  0  0  0
   52.7201  156.1408   -2.2053 O   0  0  0  0  0  0  0  0  0  0  0  0
   52.9015  156.2968   -4.8361 H   0  0  0  0  0  0  0  0  0  0  0  0
   54.3865  154.9829   -2.4702 H   0  0  0  0  0  0  0  0  0  0  0  0
   52.3977  154.1448   -5.2769 H   0  0  0  0  0  0  0  0  0  0  0  0
   53.0095  156.3279   -1.2973 H   0  0  0  0  0  0  0  0  0  0  0  0
  1  2  1  0  0  0  0
  1  3  1  0  0  0  0
  1  7  2  0  0  0  0
  2  4  1  0  0  0  0
  2  8  2  0  0  0  0
  3  5  1  0  0  0  0
  3  9  2  0  0  0  0
  4  6  1  0  0  0  0
  4 10  2  0  0  0  0
  5  6  1  0  0  0  0
  5 11  1  0  0  0  0
  6 12  1  0  0  0  0
  5 13  1  0  0  0  0
  6 14  1  0  0  0  0
 11 15  1  0  0  0  0
 12 16  1  0  0  0  0
M  END
> <FRED Chemgauss4 score>
-4.748304

$$$$
C69049229	P106086117
  -OEChem-05122015083D

 22 22  0     1  0  0  0  0  0999 V2000
   55.3334  158.4138   -2.5225 C   0  0  0  0  0  0  0  0  0  0  0  0
   56.1438  158.0834   -3.5863 C   0  0  0  0  0  0  0  0  0  0  0  0
   53.6834  157.0718   -3.3628 C   0  0  0  0  0  0  0  0  0  0  0  0
   54.4934  156.7420   -4.4270 C   0  0  0  0  0  0  0  0  0  0  0  0
   56.8978  153.7125   -6.4721 C   0  0  0  0  0  0  0  0  0  0  0  0
   54.8729  154.5373   -5.6106 C   0  0  0  0  0  0  0  0  0  0  0  0
   54.0039  155.7930   -5.4996 C   0  0  1  0  0  0  0  0  0  0  0  0
   54.0887  157.9138   -2.3916 N   0  0  0  0  0  0  0  0  0  0  0  0
   55.7383  157.2417   -4.5577 N   0  0  0  0  0  0  0  0  0  0  0  0
   52.6186  155.4377   -5.2773 N   0  0  0  0  0  0  0  0  0  0  0  0
   56.0602  154.8508   -6.3314 O   0  0  0  0  0  0  0  0  0  0  0  0
   55.6599  159.0904   -1.7425 H   0  0  0  0  0  0  0  0  0  0  0  0
   57.1440  158.4854   -3.6908 H   0  0  0  0  0  0  0  0  0  0  0  0
   52.6817  156.6738   -3.2509 H   0  0  0  0  0  0  0  0  0  0  0  0
   57.7973  153.9875   -7.0283 H   0  0  0  0  0  0  0  0  0  0  0  0
   56.3565  152.9238   -7.0007 H   0  0  0  0  0  0  0  0  0  0  0  0
   57.1812  153.3549   -5.4793 H   0  0  0  0  0  0  0  0  0  0  0  0
   55.1719  154.1796   -4.6192 H   0  0  0  0  0  0  0  0  0  0  0  0
   54.3561  153.7264   -6.1353 H   0  0  0  0  0  0  0  0  0  0  0  0
   54.0102  156.3047   -6.4703 H   0  0  0  0  0  0  0  0  0  0  0  0
   52.2632  154.5979   -5.6952 H   0  0  0  0  0  0  0  0  0  0  0  0
   52.0004  156.1268   -4.8908 H   0  0  0  0  0  0  0  0  0  0  0  0
  1  2  2  0  0  0  0
  1  8  1  0  0  0  0
  2  9  1  0  0  0  0
  3  4  1  0  0  0  0
  3  8  2  0  0  0  0
  4  7  1  0  0  0  0
  4  9  2  0  0  0  0
  5 11  1  0  0  0  0
  6  7  1  0  0  0  0
  6 11  1  0  0  0  0
  7 10  1  0  0  0  0
  1 12  1  0  0  0  0
  2 13  1  0  0  0  0
  3 14  1  0  0  0  0
  5 15  1  0  0  0  0
  5 16  1  0  0  0  0
  5 17  1  0  0  0  0
  6 18  1  0  0  0  0
  6 19  1  0  0  0  0
  7 20  1  0  0  0  0
 10 21  1  0  0  0  0
 10 22  1  0  0  0  0
M  END
> <FRED Chemgauss4 score>
-4.747952

$$$$
C87777191	P137311341
  -OEChem-05122015083D

 19 19  0     0  0  0  0  0  0999 V2000
   55.3739  155.4927   -5.8655 C   0  0  0  0  0  0  0  0  0  0  0  0
   54.9856  155.8941   -3.8542 C   0  0  0  0  0  0  0  0  0  0  0  0
   54.7339  156.5189   -2.5586 C   0  0  0  0  0  0  0  0  0  0  0  0
   55.4052  152.9443   -5.8841 C   0  0  0  0  0  0  0  0  0  0  0  0
   55.3710  152.9450   -7.4038 C   0  0  0  0  0  0  0  0  0  0  0  0
   55.1960  156.5231   -4.9872 N   0  0  0  0  0  0  0  0  0  0  0  0
   55.0379  154.5507   -4.0599 N   0  0  0  0  0  0  0  0  0  0  0  0
   55.2866  154.2658   -5.3472 N   0  0  0  0  0  0  0  0  0  0  0  0
   53.8870  155.7227   -1.6867 N   0  0  0  0  0  0  0  0  0  0  0  0
   55.4882  151.6674   -7.8560 F   0  0  0  0  0  0  0  0  0  0  0  0
   55.5734  155.6638   -6.9160 H   0  0  0  0  0  0  0  0  0  0  0  0
   55.6673  156.7100   -1.9879 H   0  0  0  0  0  0  0  0  0  0  0  0
   54.2373  157.5086   -2.6430 H   0  0  0  0  0  0  0  0  0  0  0  0
   54.5911  152.3208   -5.4955 H   0  0  0  0  0  0  0  0  0  0  0  0
   56.3411  152.4933   -5.5329 H   0  0  0  0  0  0  0  0  0  0  0  0
   54.4405  153.3622   -7.8010 H   0  0  0  0  0  0  0  0  0  0  0  0
   56.2131  153.5148   -7.8071 H   0  0  0  0  0  0  0  0  0  0  0  0
   53.3322  156.1945   -1.0008 H   0  0  0  0  0  0  0  0  0  0  0  0
   54.0319  154.7332   -1.6558 H   0  0  0  0  0  0  0  0  0  0  0  0
  1  6  2  0  0  0  0
  1  8  1  0  0  0  0
  2  3  1  0  0  0  0
  2  6  1  0  0  0  0
  2  7  2  0  0  0  0
  3  9  1  0  0  0  0
  4  5  1  0  0  0  0
  4  8  1  0  0  0  0
  5 10  1  0  0  0  0
  7  8  1  0  0  0  0
  1 11  1  0  0  0  0
  3 12  1  0  0  0  0
  3 13  1  0  0  0  0
  4 14  1  0  0  0  0
  4 15  1  0  0  0  0
  5 16  1  0  0  0  0
  5 17  1  0  0  0  0
  9 18  1  0  0  0  0
  9 19  1  0  0  0  0
M  END
> <FRED Chemgauss4 score>
-4.739430

$$$$
C95532417	P150161681
  -OEChem-05122015083D

 26 27  0     1  0  0  0  0  0999 V2000
   56.5688  157.4349   -4.1977 C   0  0  0  0  0  0  0  0  0  0  0  0
   54.5645  156.7617   -3.2173 C   0  0  0  0  0  0  0  0  0  0  0  0
   54.8912  154.9692   -6.5712 C   0  0  0  0  0  0  0  0  0  0  0  0
   55.7267  156.7557   -5.2395 C   0  0  2  0  0  0  0  0  0  0  0  0
   54.8949  155.8358   -4.3518 C   0  0  2  0  0  0  0  0  0  0  0  0
   56.1943  155.7743   -6.2848 C   0  0  2  0  0  0  0  0  0  0  0  0
   53.9606  155.1581   -5.3295 C   0  0  1  0  0  0  0  0  0  0  0  0
   55.9921  158.4115   -1.9677 C   0  0  0  0  0  0  0  0  0  0  0  0
   55.7084  157.5585   -3.1029 N   0  0  0  0  0  0  0  0  0  0  0  0
   56.7222  156.4234   -7.4720 N   0  0  0  0  0  0  0  0  0  0  0  0
   52.7842  155.9538   -5.6645 N   0  0  0  0  0  0  0  0  0  0  0  0
   57.7050  157.8507   -4.3421 O   0  0  0  0  0  0  0  0  0  0  0  0
   53.5641  156.7296   -2.5227 O   0  0  0  0  0  0  0  0  0  0  0  0
   54.3964  155.3090   -7.4901 H   0  0  0  0  0  0  0  0  0  0  0  0
   55.1315  153.9095   -6.7189 H   0  0  0  0  0  0  0  0  0  0  0  0
   55.1151  157.5488   -5.6983 H   0  0  0  0  0  0  0  0  0  0  0  0
   55.5276  155.0520   -3.8999 H   0  0  0  0  0  0  0  0  0  0  0  0
   56.9635  155.1082   -5.8742 H   0  0  0  0  0  0  0  0  0  0  0  0
   53.6251  154.1872   -4.9507 H   0  0  0  0  0  0  0  0  0  0  0  0
   55.5855  159.4117   -2.1385 H   0  0  0  0  0  0  0  0  0  0  0  0
   57.0719  158.4918   -1.8158 H   0  0  0  0  0  0  0  0  0  0  0  0
   55.5405  157.9980   -1.0620 H   0  0  0  0  0  0  0  0  0  0  0  0
   56.6808  155.9319   -8.3427 H   0  0  0  0  0  0  0  0  0  0  0  0
   57.2881  157.2408   -7.3569 H   0  0  0  0  0  0  0  0  0  0  0  0
   52.3306  156.4545   -4.9306 H   0  0  0  0  0  0  0  0  0  0  0  0
   52.3581  155.8111   -6.5551 H   0  0  0  0  0  0  0  0  0  0  0  0
  1  4  1  0  0  0  0
  1  9  1  0  0  0  0
  1 12  2  0  0  0  0
  2  5  1  0  0  0  0
  2  9  1  0  0  0  0
  2 13  2  0  0  0  0
  3  6  1  0  0  0  0
  3  7  1  0  0  0  0
  4  5  1  0  0  0  0
  4  6  1  0  0  0  0
  5  7  1  0  0  0  0
  6 10  1  0  0  0  0
  7 11  1  0  0  0  0
  8  9  1  0  0  0  0
  3 14  1  0  0  0  0
  3 15  1  0  0  0  0
  4 16  1  0  0  0  0
  5 17  1  0  0  0  0
  6 18  1  0  0  0  0
  7 19  1  0  0  0  0
  8 20  1  0  0  0  0
  8 21  1  0  0  0  0
  8 22  1  0  0  0  0
 10 23  1  0  0  0  0
 10 24  1  0  0  0  0
 11 25  1  0  0  0  0
 11 26  1  0  0  0  0
M  END
> <FRED Chemgauss4 score>
-4.736475

$$$$
C52833943	P79173630
  -OEChem-05122015083D

 22 22  0     0  0  0  0  0  0999 V2000
   56.1886  159.5658   -1.8132 C   0  0  0  0  0  0  0  0  0  0  0  0
   55.3876  158.4253   -3.4765 C   0  0  0  0  0  0  0  0  0  0  0  0
   53.6110  156.2473   -5.8879 C   0  0  0  0  0  0  0  0  0  0  0  0
   57.6415  159.4832   -3.8513 C   0  0  0  0  0  0  0  0  0  0  0  0
   55.2775  157.7885   -4.8317 C   0  0  0  0  0  0  0  0  0  0  0  0
   55.0210  159.0919   -1.4409 N   0  0  0  0  0  0  0  0  0  0  0  0
   54.5113  158.3663   -2.4992 N   0  0  0  0  0  0  0  0  0  0  0  0
   54.5171  155.4884   -6.4481 N   0  0  0  0  0  0  0  0  0  0  0  0
   56.4592  159.1705   -3.0880 N   0  0  0  0  0  0  0  0  0  0  0  0
   52.2471  156.0714   -5.9811 N   0  0  0  0  0  0  0  0  0  0  0  0
   53.9324  157.3477   -5.1137 N   0  0  0  0  0  0  0  0  0  0  0  0
   53.9088  154.4550   -7.1673 O   0  0  0  0  0  0  0  0  0  0  0  0
   56.8544  160.1773   -1.2211 H   0  0  0  0  0  0  0  0  0  0  0  0
   58.3800  158.6988   -3.6659 H   0  0  0  0  0  0  0  0  0  0  0  0
   57.3880  159.5262   -4.9142 H   0  0  0  0  0  0  0  0  0  0  0  0
   58.0284  160.4563   -3.5359 H   0  0  0  0  0  0  0  0  0  0  0  0
   55.5720  158.4951   -5.6154 H   0  0  0  0  0  0  0  0  0  0  0  0
   55.9385  156.9192   -4.9123 H   0  0  0  0  0  0  0  0  0  0  0  0
   51.8538  155.3051   -6.5164 H   0  0  0  0  0  0  0  0  0  0  0  0
   51.5983  156.6995   -5.5198 H   0  0  0  0  0  0  0  0  0  0  0  0
   53.1793  157.8958   -4.7074 H   0  0  0  0  0  0  0  0  0  0  0  0
   54.6813  153.9826   -7.5210 H   0  0  0  0  0  0  0  0  0  0  0  0
  1  6  2  0  0  0  0
  1  9  1  0  0  0  0
  2  5  1  0  0  0  0
  2  7  2  0  0  0  0
  2  9  1  0  0  0  0
  3  8  2  0  0  0  0
  3 10  1  0  0  0  0
  3 11  1  0  0  0  0
  4  9  1  0  0  0  0
  5 11  1  0  0  0  0
  6  7  1  0  0  0  0
  8 12  1  0  0  0  0
  1 13  1  0  0  0  0
  4 14  1  0  0  0  0
  4 15  1  0  0  0  0
  4 16  1  0  0  0  0
  5 17  1  0  0  0  0
  5 18  1  0  0  0  0
 10 19  1  0  0  0  0
 10 20  1  0  0  0  0
 11 21  1  0  0  0  0
 12 22  1  0  0  0  0
M  END
> <FRED Chemgauss4 score>
-4.733504

$$$$
C94992751	P148902415
  -OEChem-05122015083D

 24 24  0     1  0  0  0  0  0999 V2000
   55.4340  156.4232   -5.8682 C   0  0  0  0  0  0  0  0  0  0  0  0
   53.9709  156.5603   -3.5278 C   0  0  0  0  0  0  0  0  0  0  0  0
   55.2339  157.8177   -5.3006 C   0  0  0  0  0  0  0  0  0  0  0  0
   53.6743  155.3537   -4.3996 C   0  0  0  0  0  0  0  0  0  0  0  0
   54.1539  157.9044   -4.2199 C   0  0  2  0  0  0  0  0  0  0  0  0
   54.2603  155.4514   -5.8115 C   0  0  2  0  0  0  0  0  0  0  0  0
   54.4663  159.0275   -3.2315 C   0  0  0  0  0  0  0  0  0  0  0  0
   54.6531  154.0667   -6.3261 C   0  0  0  0  0  0  0  0  0  0  0  0
   56.5014  156.1286   -6.4100 O   0  0  0  0  0  0  0  0  0  0  0  0
   53.9990  156.4460   -2.3013 O   0  0  0  0  0  0  0  0  0  0  0  0
   52.9054  158.2001   -4.8420 O   0  0  0  0  0  0  0  0  0  0  0  0
   53.2824  155.9563   -6.7179 O   0  0  0  0  0  0  0  0  0  0  0  0
   56.2239  158.1381   -4.9112 H   0  0  0  0  0  0  0  0  0  0  0  0
   55.0041  158.5039   -6.1437 H   0  0  0  0  0  0  0  0  0  0  0  0
   54.0711  154.4716   -3.8553 H   0  0  0  0  0  0  0  0  0  0  0  0
   52.5735  155.2181   -4.4386 H   0  0  0  0  0  0  0  0  0  0  0  0
   54.5893  159.9683   -3.7665 H   0  0  0  0  0  0  0  0  0  0  0  0
   55.3859  158.8019   -2.6931 H   0  0  0  0  0  0  0  0  0  0  0  0
   53.6511  159.1290   -2.5163 H   0  0  0  0  0  0  0  0  0  0  0  0
   53.7970  153.3954   -6.2738 H   0  0  0  0  0  0  0  0  0  0  0  0
   55.4606  153.6609   -5.7180 H   0  0  0  0  0  0  0  0  0  0  0  0
   54.9874  154.1370   -7.3604 H   0  0  0  0  0  0  0  0  0  0  0  0
   53.0138  159.0555   -5.2855 H   0  0  0  0  0  0  0  0  0  0  0  0
   52.5331  155.3416   -6.6859 H   0  0  0  0  0  0  0  0  0  0  0  0
  1  3  1  0  0  0  0
  1  6  1  0  0  0  0
  1  9  2  0  0  0  0
  2  4  1  0  0  0  0
  2  5  1  0  0  0  0
  2 10  2  0  0  0  0
  3  5  1  0  0  0  0
  4  6  1  0  0  0  0
  5  7  1  0  0  0  0
  5 11  1  0  0  0  0
  6  8  1  0  0  0  0
  6 12  1  0  0  0  0
  3 13  1  0  0  0  0
  3 14  1  0  0  0  0
  4 15  1  0  0  0  0
  4 16  1  0  0  0  0
  7 17  1  0  0  0  0
  7 18  1  0  0  0  0
  7 19  1  0  0  0  0
  8 20  1  0  0  0  0
  8 21  1  0  0  0  0
  8 22  1  0  0  0  0
 11 23  1  0  0  0  0
 12 24  1  0  0  0  0
M  END
> <FRED Chemgauss4 score>
-4.727636

$$$$
C85086716	P133135802
  -OEChem-05122015083D

 21 21  0     0  0  0  0  0  0999 V2000
   56.4752  156.7784   -4.7282 C   0  0  0  0  0  0  0  0  0  0  0  0
   55.0643  156.1490   -2.7810 C   0  0  0  0  0  0  0  0  0  0  0  0
   56.8830  158.0151   -3.9665 C   0  0  0  0  0  0  0  0  0  0  0  0
   55.5325  157.4131   -2.1027 C   0  0  0  0  0  0  0  0  0  0  0  0
   55.1633  154.7191   -4.7755 C   0  0  0  0  0  0  0  0  0  0  0  0
   53.9534  155.0141   -5.6432 C   0  0  0  0  0  0  0  0  0  0  0  0
   55.7918  158.4352   -3.1032 N   0  0  0  0  0  0  0  0  0  0  0  0
   55.5681  155.9308   -4.0725 N   0  0  0  0  0  0  0  0  0  0  0  0
   56.9819  156.5384   -5.8264 O   0  0  0  0  0  0  0  0  0  0  0  0
   54.3375  155.3619   -2.1710 O   0  0  0  0  0  0  0  0  0  0  0  0
   52.8721  155.4315   -4.8195 O   0  0  0  0  0  0  0  0  0  0  0  0
   57.8012  157.8118   -3.4047 H   0  0  0  0  0  0  0  0  0  0  0  0
   57.0904  158.8098   -4.6909 H   0  0  0  0  0  0  0  0  0  0  0  0
   54.7342  157.7600   -1.4382 H   0  0  0  0  0  0  0  0  0  0  0  0
   56.4173  157.1946   -1.4948 H   0  0  0  0  0  0  0  0  0  0  0  0
   54.9392  153.9491   -4.0306 H   0  0  0  0  0  0  0  0  0  0  0  0
   56.0030  154.3865   -5.3932 H   0  0  0  0  0  0  0  0  0  0  0  0
   53.6436  154.1087   -6.1744 H   0  0  0  0  0  0  0  0  0  0  0  0
   54.1643  155.8020   -6.3736 H   0  0  0  0  0  0  0  0  0  0  0  0
   56.0531  159.3019   -2.6338 H   0  0  0  0  0  0  0  0  0  0  0  0
   52.1229  155.6089   -5.4106 H   0  0  0  0  0  0  0  0  0  0  0  0
  1  3  1  0  0  0  0
  1  8  1  0  0  0  0
  1  9  2  0  0  0  0
  2  4  1  0  0  0  0
  2  8  1  0  0  0  0
  2 10  2  0  0  0  0
  3  7  1  0  0  0  0
  4  7  1  0  0  0  0
  5  6  1  0  0  0  0
  5  8  1  0  0  0  0
  6 11  1  0  0  0  0
  3 12  1  0  0  0  0
  3 13  1  0  0  0  0
  4 14  1  0  0  0  0
  4 15  1  0  0  0  0
  5 16  1  0  0  0  0
  5 17  1  0  0  0  0
  6 18  1  0  0  0  0
  6 19  1  0  0  0  0
  7 20  1  0  0  0  0
 11 21  1  0  0  0  0
M  END
> <FRED Chemgauss4 score>
-4.724866

$$$$
C54497644	P82017894
  -OEChem-05122015083D

 25 25  0     1  0  0  0  0  0999 V2000
   55.3386  155.6985   -3.8859 C   0  0  0  0  0  0  0  0  0  0  0  0
   54.4665  157.6346   -3.4387 C   0  0  0  0  0  0  0  0  0  0  0  0
   55.9530  159.6264   -1.7051 C   0  0  0  0  0  0  0  0  0  0  0  0
   56.1160  157.0211   -6.5649 C   0  0  0  0  0  0  0  0  0  0  0  0
   55.4545  159.9368   -3.1113 C   0  0  0  0  0  0  0  0  0  0  0  0
   56.2851  157.6223   -5.1802 C   0  0  0  0  0  0  0  0  0  0  0  0
   54.2021  159.1259   -3.4855 C   0  0  1  0  0  0  0  0  0  0  0  0
   54.4175  155.5138   -2.9673 N   0  0  0  0  0  0  0  0  0  0  0  0
   53.8626  156.7455   -2.6828 N   0  0  0  0  0  0  0  0  0  0  0  0
   55.4033  157.0192   -4.2122 N   0  0  0  0  0  0  0  0  0  0  0  0
   53.6859  159.5096   -4.7805 N   0  0  0  0  0  0  0  0  0  0  0  0
   55.9641  154.9392   -4.3332 H   0  0  0  0  0  0  0  0  0  0  0  0
   56.1640  158.5583   -1.5908 H   0  0  0  0  0  0  0  0  0  0  0  0
   56.8773  160.1772   -1.5037 H   0  0  0  0  0  0  0  0  0  0  0  0
   55.2182  159.9162   -0.9477 H   0  0  0  0  0  0  0  0  0  0  0  0
   56.3187  155.9450   -6.5566 H   0  0  0  0  0  0  0  0  0  0  0  0
   56.8070  157.4931   -7.2703 H   0  0  0  0  0  0  0  0  0  0  0  0
   55.0963  157.1658   -6.9370 H   0  0  0  0  0  0  0  0  0  0  0  0
   55.2558  161.0136   -3.1824 H   0  0  0  0  0  0  0  0  0  0  0  0
   56.2628  159.7161   -3.8201 H   0  0  0  0  0  0  0  0  0  0  0  0
   56.0803  158.6987   -5.1986 H   0  0  0  0  0  0  0  0  0  0  0  0
   57.3140  157.4930   -4.8259 H   0  0  0  0  0  0  0  0  0  0  0  0
   53.4048  159.3699   -2.7723 H   0  0  0  0  0  0  0  0  0  0  0  0
   53.7625  160.4687   -5.0668 H   0  0  0  0  0  0  0  0  0  0  0  0
   53.0893  158.8692   -5.2722 H   0  0  0  0  0  0  0  0  0  0  0  0
  1  8  2  0  0  0  0
  1 10  1  0  0  0  0
  2  7  1  0  0  0  0
  2  9  2  0  0  0  0
  2 10  1  0  0  0  0
  3  5  1  0  0  0  0
  4  6  1  0  0  0  0
  5  7  1  0  0  0  0
  6 10  1  0  0  0  0
  7 11  1  0  0  0  0
  8  9  1  0  0  0  0
  1 12  1  0  0  0  0
  3 13  1  0  0  0  0
  3 14  1  0  0  0  0
  3 15  1  0  0  0  0
  4 16  1  0  0  0  0
  4 17  1  0  0  0  0
  4 18  1  0  0  0  0
  5 19  1  0  0  0  0
  5 20  1  0  0  0  0
  6 21  1  0  0  0  0
  6 22  1  0  0  0  0
  7 23  1  0  0  0  0
 11 24  1  0  0  0  0
 11 25  1  0  0  0  0
M  END
> <FRED Chemgauss4 score>
-4.720761

$$$$
C95630366	P150376101
  -OEChem-05122015083D

 25 24  0     1  0  0  0  0  0999 V2000
   54.2317  157.9285   -3.1525 C   0  0  0  0  0  0  0  0  0  0  0  0
   55.2995  152.2735   -7.5893 C   0  0  0  0  0  0  0  0  0  0  0  0
   56.2819  153.2366   -6.9482 C   0  0  0  0  0  0  0  0  0  0  0  0
   54.8103  154.8975   -6.1746 C   0  0  0  0  0  0  0  0  0  0  0  0
   54.1830  155.4778   -4.9217 C   0  0  0  0  0  0  0  0  0  0  0  0
   54.6996  156.5120   -2.8546 C   0  0  1  0  0  0  0  0  0  0  0  0
   55.9080  151.6758   -8.7998 N   0  0  0  0  0  0  0  0  0  0  0  0
   53.6211  155.7518   -2.3181 O   0  0  0  0  0  0  0  0  0  0  0  0
   55.6809  153.8341   -5.8079 O   0  0  0  0  0  0  0  0  0  0  0  0
   55.2131  155.9480   -4.0624 O   0  0  0  0  0  0  0  0  0  0  0  0
   53.4345  157.9264   -3.9026 H   0  0  0  0  0  0  0  0  0  0  0  0
   53.8277  158.4012   -2.2502 H   0  0  0  0  0  0  0  0  0  0  0  0
   55.0610  158.5489   -3.5062 H   0  0  0  0  0  0  0  0  0  0  0  0
   55.0332  151.4630   -6.9034 H   0  0  0  0  0  0  0  0  0  0  0  0
   54.3896  152.8017   -7.8901 H   0  0  0  0  0  0  0  0  0  0  0  0
   56.5381  154.0344   -7.6521 H   0  0  0  0  0  0  0  0  0  0  0  0
   57.1996  152.7273   -6.6364 H   0  0  0  0  0  0  0  0  0  0  0  0
   55.3984  155.6514   -6.7068 H   0  0  0  0  0  0  0  0  0  0  0  0
   54.0390  154.4955   -6.8379 H   0  0  0  0  0  0  0  0  0  0  0  0
   53.6075  154.7200   -4.3810 H   0  0  0  0  0  0  0  0  0  0  0  0
   53.5350  156.3223   -5.1739 H   0  0  0  0  0  0  0  0  0  0  0  0
   55.4955  156.5507   -2.1021 H   0  0  0  0  0  0  0  0  0  0  0  0
   55.2905  151.3469   -9.4966 H   0  0  0  0  0  0  0  0  0  0  0  0
   56.8696  151.4550   -8.7560 H   0  0  0  0  0  0  0  0  0  0  0  0
   53.3234  156.1817   -1.4990 H   0  0  0  0  0  0  0  0  0  0  0  0
  1  6  1  0  0  0  0
  2  3  1  0  0  0  0
  2  7  1  0  0  0  0
  3  9  1  0  0  0  0
  4  5  1  0  0  0  0
  4  9  1  0  0  0  0
  5 10  1  0  0  0  0
  6  8  1  0  0  0  0
  6 10  1  0  0  0  0
  1 11  1  0  0  0  0
  1 12  1  0  0  0  0
  1 13  1  0  0  0  0
  2 14  1  0  0  0  0
  2 15  1  0  0  0  0
  3 16  1  0  0  0  0
  3 17  1  0  0  0  0
  4 18  1  0  0  0  0
  4 19  1  0  0  0  0
  5 20  1  0  0  0  0
  5 21  1  0  0  0  0
  6 22  1  0  0  0  0
  7 23  1  0  0  0  0
  7 24  1  0  0  0  0
  8 25  1  0  0  0  0
M  END
> <FRED Chemgauss4 score>
-4.719527

$$$$
C50194539	P75082831
  -OEChem-05122015083D

 24 25  0     1  0  0  0  0  0999 V2000
   54.8424  157.6166   -3.0257 C   0  0  0  0  0  0  0  0  0  0  0  0
   53.8170  155.9613   -4.0101 C   0  0  0  0  0  0  0  0  0  0  0  0
   55.8784  158.5680   -2.9273 C   0  0  0  0  0  0  0  0  0  0  0  0
   55.8860  156.8479   -5.0753 C   0  0  0  0  0  0  0  0  0  0  0  0
   56.8213  158.5854   -3.8937 C   0  0  0  0  0  0  0  0  0  0  0  0
   57.9519  159.5717   -3.8503 C   0  0  0  0  0  0  0  0  0  0  0  0
   54.5976  153.8324   -5.1284 C   0  0  0  0  0  0  0  0  0  0  0  0
   53.4983  154.9060   -4.9882 C   0  0  2  0  0  0  0  0  0  0  0  0
   53.7889  157.3146   -2.2985 N   0  0  0  0  0  0  0  0  0  0  0  0
   53.1389  156.2642   -2.9239 N   0  0  0  0  0  0  0  0  0  0  0  0
   56.8399  157.7250   -4.9839 N   0  0  0  0  0  0  0  0  0  0  0  0
   54.8939  156.7858   -4.1128 N   0  0  0  0  0  0  0  0  0  0  0  0
   53.1848  155.4386   -6.3108 N   0  0  0  0  0  0  0  0  0  0  0  0
   55.8960  159.2558   -2.0897 H   0  0  0  0  0  0  0  0  0  0  0  0
   55.8569  156.1434   -5.9215 H   0  0  0  0  0  0  0  0  0  0  0  0
   58.7869  159.1411   -3.3031 H   0  0  0  0  0  0  0  0  0  0  0  0
   57.6204  160.4814   -3.3549 H   0  0  0  0  0  0  0  0  0  0  0  0
   58.2634  159.8101   -4.8647 H   0  0  0  0  0  0  0  0  0  0  0  0
   55.5484  154.2960   -5.4135 H   0  0  0  0  0  0  0  0  0  0  0  0
   54.7545  153.2841   -4.1926 H   0  0  0  0  0  0  0  0  0  0  0  0
   54.3390  153.0932   -5.8949 H   0  0  0  0  0  0  0  0  0  0  0  0
   52.5749  154.3602   -4.7001 H   0  0  0  0  0  0  0  0  0  0  0  0
   52.6756  156.2943   -6.3638 H   0  0  0  0  0  0  0  0  0  0  0  0
   53.3060  154.8396   -7.0988 H   0  0  0  0  0  0  0  0  0  0  0  0
  1  3  1  0  0  0  0
  1  9  2  0  0  0  0
  1 12  1  0  0  0  0
  2  8  1  0  0  0  0
  2 10  2  0  0  0  0
  2 12  1  0  0  0  0
  3  5  2  0  0  0  0
  4 11  2  0  0  0  0
  4 12  1  0  0  0  0
  5  6  1  0  0  0  0
  5 11  1  0  0  0  0
  7  8  1  0  0  0  0
  8 13  1  0  0  0  0
  9 10  1  0  0  0  0
  3 14  1  0  0  0  0
  4 15  1  0  0  0  0
  6 16  1  0  0  0  0
  6 17  1  0  0  0  0
  6 18  1  0  0  0  0
  7 19  1  0  0  0  0
  7 20  1  0  0  0  0
  7 21  1  0  0  0  0
  8 22  1  0  0  0  0
 13 23  1  0  0  0  0
 13 24  1  0  0  0  0
M  END
> <FRED Chemgauss4 score>
-4.718582

$$$$
C98091800	P155914780
  -OEChem-05122015083D

 21 21  0     1  0  0  0  0  0999 V2000
   54.8608  154.1763   -6.4389 C   0  0  0  0  0  0  0  0  0  0  0  0
   55.7575  156.8907   -6.0220 C   0  0  0  0  0  0  0  0  0  0  0  0
   56.2923  154.4598   -6.0100 C   0  0  1  0  0  0  0  0  0  0  0  0
   54.3691  156.4720   -5.5753 C   0  0  2  0  0  0  0  0  0  0  0  0
   57.2749  153.5077   -6.6765 C   0  0  0  0  0  0  0  0  0  0  0  0
   54.2710  156.3380   -4.0637 C   0  0  0  0  0  0  0  0  0  0  0  0
   56.5957  155.8415   -6.3486 N   0  0  0  0  0  0  0  0  0  0  0  0
   54.0041  155.2492   -6.2719 N   0  0  0  0  0  0  0  0  0  0  0  0
   54.4751  153.0645   -6.7946 O   0  0  0  0  0  0  0  0  0  0  0  0
   56.1229  158.0648   -5.9968 O   0  0  0  0  0  0  0  0  0  0  0  0
   52.9485  155.9567   -3.7250 O   0  0  0  0  0  0  0  0  0  0  0  0
   56.3590  154.3547   -4.9224 H   0  0  0  0  0  0  0  0  0  0  0  0
   53.6653  157.2375   -5.9215 H   0  0  0  0  0  0  0  0  0  0  0  0
   57.2148  153.6061   -7.7610 H   0  0  0  0  0  0  0  0  0  0  0  0
   57.0426  152.4779   -6.4027 H   0  0  0  0  0  0  0  0  0  0  0  0
   58.2926  153.7362   -6.3577 H   0  0  0  0  0  0  0  0  0  0  0  0
   54.5012  157.2919   -3.5851 H   0  0  0  0  0  0  0  0  0  0  0  0
   54.9652  155.5748   -3.7068 H   0  0  0  0  0  0  0  0  0  0  0  0
   57.4584  156.0433   -6.8451 H   0  0  0  0  0  0  0  0  0  0  0  0
   53.0674  155.1788   -6.6576 H   0  0  0  0  0  0  0  0  0  0  0  0
   52.9146  155.8788   -2.7567 H   0  0  0  0  0  0  0  0  0  0  0  0
  1  3  1  0  0  0  0
  1  8  1  0  0  0  0
  1  9  2  0  0  0  0
  2  4  1  0  0  0  0
  2  7  1  0  0  0  0
  2 10  2  0  0  0  0
  3  5  1  0  0  0  0
  3  7  1  0  0  0  0
  4  6  1  0  0  0  0
  4  8  1  0  0  0  0
  6 11  1  0  0  0  0
  3 12  1  0  0  0  0
  4 13  1  0  0  0  0
  5 14  1  0  0  0  0
  5 15  1  0  0  0  0
  5 16  1  0  0  0  0
  6 17  1  0  0  0  0
  6 18  1  0  0  0  0
  7 19  1  0  0  0  0
  8 20  1  0  0  0  0
 11 21  1  0  0  0  0
M  END
> <FRED Chemgauss4 score>
-4.714736

$$$$
C88062526	P137750046
  -OEChem-05122015083D

 26 26  0     1  0  0  0  0  0999 V2000
   57.7967  157.7018   -5.3371 C   0  0  0  0  0  0  0  0  0  0  0  0
   57.1517  154.4653   -7.1117 C   0  0  0  0  0  0  0  0  0  0  0  0
   58.2165  154.5548   -6.0563 C   0  0  0  0  0  0  0  0  0  0  0  0
   57.1080  155.5808   -6.0936 C   0  0  0  0  0  0  0  0  0  0  0  0
   57.4491  156.9709   -6.5554 C   0  0  0  0  0  0  0  0  0  0  0  0
   56.0532  155.5180   -5.0235 C   0  0  0  0  0  0  0  0  0  0  0  0
   53.8245  155.7772   -2.9514 C   0  0  0  0  0  0  0  0  0  0  0  0
   53.4423  155.2895   -4.3386 C   0  0  0  0  0  0  0  0  0  0  0  0
   58.0745  158.2940   -4.3784 N   0  0  0  0  0  0  0  0  0  0  0  0
   53.6756  157.2002   -2.8049 N   0  0  0  0  0  0  0  0  0  0  0  0
   54.3617  157.5862   -5.3532 O   0  0  0  0  0  0  0  0  0  0  0  0
   54.4349  156.0951   -5.6282 S   0  0  1  0  0  0  0  0  0  0  0  0
   57.4327  154.7032   -8.1308 H   0  0  0  0  0  0  0  0  0  0  0  0
   56.4305  153.6605   -7.0315 H   0  0  0  0  0  0  0  0  0  0  0  0
   58.2083  153.8100   -5.2693 H   0  0  0  0  0  0  0  0  0  0  0  0
   59.2104  154.8528   -6.3687 H   0  0  0  0  0  0  0  0  0  0  0  0
   56.5892  157.4175   -7.0568 H   0  0  0  0  0  0  0  0  0  0  0  0
   58.2874  156.9359   -7.2527 H   0  0  0  0  0  0  0  0  0  0  0  0
   56.3215  156.1478   -4.1652 H   0  0  0  0  0  0  0  0  0  0  0  0
   55.9162  154.4909   -4.6608 H   0  0  0  0  0  0  0  0  0  0  0  0
   54.8770  155.5510   -2.7536 H   0  0  0  0  0  0  0  0  0  0  0  0
   53.2196  155.2992   -2.1740 H   0  0  0  0  0  0  0  0  0  0  0  0
   52.3967  155.5354   -4.5475 H   0  0  0  0  0  0  0  0  0  0  0  0
   53.5742  154.2075   -4.4391 H   0  0  0  0  0  0  0  0  0  0  0  0
   53.9069  157.8006   -3.5802 H   0  0  0  0  0  0  0  0  0  0  0  0
   53.5424  157.5877   -1.8844 H   0  0  0  0  0  0  0  0  0  0  0  0
  1  5  1  0  0  0  0
  1  9  3  0  0  0  0
  2  3  1  0  0  0  0
  2  4  1  0  0  0  0
  3  4  1  0  0  0  0
  4  5  1  0  0  0  0
  4  6  1  0  0  0  0
  6 12  1  0  0  0  0
  7  8  1  0  0  0  0
  7 10  1  0  0  0  0
  8 12  1  0  0  0  0
 11 12  2  0  0  0  0
  2 13  1  0  0  0  0
  2 14  1  0  0  0  0
  3 15  1  0  0  0  0
  3 16  1  0  0  0  0
  5 17  1  0  0  0  0
  5 18  1  0  0  0  0
  6 19  1  0  0  0  0
  6 20  1  0  0  0  0
  7 21  1  0  0  0  0
  7 22  1  0  0  0  0
  8 23  1  0  0  0  0
  8 24  1  0  0  0  0
 10 25  1  0  0  0  0
 10 26  1  0  0  0  0
M  END
> <FRED Chemgauss4 score>
-4.710829

$$$$
C83267836	P130159078
  -OEChem-05122015083D

 19 19  0     1  0  0  0  0  0999 V2000
   54.2462  155.8820   -3.9474 C   0  0  0  0  0  0  0  0  0  0  0  0
   54.4582  157.3364   -2.4916 C   0  0  0  0  0  0  0  0  0  0  0  0
   55.4682  155.3697   -6.1006 C   0  0  0  0  0  0  0  0  0  0  0  0
   54.8830  159.6758   -2.4411 C   0  0  0  0  0  0  0  0  0  0  0  0
   54.1700  155.2256   -5.3090 C   0  0  2  0  0  0  0  0  0  0  0  0
   54.4796  157.2178   -3.7951 N   0  0  0  0  0  0  0  0  0  0  0  0
   54.0850  155.1879   -2.8169 N   0  0  0  0  0  0  0  0  0  0  0  0
   53.0507  155.7287   -6.0718 N   0  0  0  0  0  0  0  0  0  0  0  0
   54.2285  156.1717   -1.8305 O   0  0  0  0  0  0  0  0  0  0  0  0
   54.6322  158.4223   -1.7640 O   0  0  0  0  0  0  0  0  0  0  0  0
   55.7171  156.4244   -6.2615 H   0  0  0  0  0  0  0  0  0  0  0  0
   56.3004  154.9030   -5.5617 H   0  0  0  0  0  0  0  0  0  0  0  0
   55.4068  154.8837   -7.0808 H   0  0  0  0  0  0  0  0  0  0  0  0
   55.0038  160.4720   -1.7024 H   0  0  0  0  0  0  0  0  0  0  0  0
   54.0469  159.9053   -3.1064 H   0  0  0  0  0  0  0  0  0  0  0  0
   55.7995  159.5852   -3.0288 H   0  0  0  0  0  0  0  0  0  0  0  0
   53.9753  154.1537   -5.1809 H   0  0  0  0  0  0  0  0  0  0  0  0
   52.2042  155.9699   -5.5883 H   0  0  0  0  0  0  0  0  0  0  0  0
   53.0654  155.6362   -7.0718 H   0  0  0  0  0  0  0  0  0  0  0  0
  1  5  1  0  0  0  0
  1  6  1  0  0  0  0
  1  7  2  0  0  0  0
  2  6  2  0  0  0  0
  2  9  1  0  0  0  0
  2 10  1  0  0  0  0
  3  5  1  0  0  0  0
  4 10  1  0  0  0  0
  5  8  1  0  0  0  0
  7  9  1  0  0  0  0
  3 11  1  0  0  0  0
  3 12  1  0  0  0  0
  3 13  1  0  0  0  0
  4 14  1  0  0  0  0
  4 15  1  0  0  0  0
  4 16  1  0  0  0  0
  5 17  1  0  0  0  0
  8 18  1  0  0  0  0
  8 19  1  0  0  0  0
M  END
> <FRED Chemgauss4 score>
-4.706846

$$$$
C43376366	P65601864
  -OEChem-05122015083D

 32 32  0     1  0  0  0  0  0999 V2000
   54.7865  156.4368   -3.7078 C   0  0  0  0  0  0  0  0  0  0  0  0
   54.0239  156.4870   -6.0916 C   0  0  0  0  0  0  0  0  0  0  0  0
   56.2289  156.3893   -4.2102 C   0  0  0  0  0  0  0  0  0  0  0  0
   55.4897  156.4375   -6.5210 C   0  0  0  0  0  0  0  0  0  0  0  0
   53.8237  155.8349   -4.7264 C   0  0  0  0  0  0  0  0  0  0  0  0
   59.4735  158.5439   -7.1433 C   0  0  0  0  0  0  0  0  0  0  0  0
   57.7507  157.0498   -5.9575 C   0  0  2  0  0  0  0  0  0  0  0  0
   57.9969  158.1531   -7.0190 C   0  0  1  0  0  0  0  0  0  0  0  0
   58.0579  155.6434   -6.4693 C   0  0  0  0  0  0  0  0  0  0  0  0
   56.3576  157.0608   -5.5116 N   0  0  0  0  0  0  0  0  0  0  0  0
   57.2495  159.3713   -6.6887 N   0  0  0  0  0  0  0  0  0  0  0  0
   52.4894  156.0405   -4.2802 O   0  0  0  0  0  0  0  0  0  0  0  0
   57.8038  154.7141   -5.5187 F   0  0  0  0  0  0  0  0  0  0  0  0
   57.3172  155.3334   -7.5556 F   0  0  0  0  0  0  0  0  0  0  0  0
   59.3593  155.5100   -6.8078 F   0  0  0  0  0  0  0  0  0  0  0  0
   54.7010  155.9001   -2.7550 H   0  0  0  0  0  0  0  0  0  0  0  0
   54.4974  157.4739   -3.4905 H   0  0  0  0  0  0  0  0  0  0  0  0
   53.6749  157.5279   -6.0611 H   0  0  0  0  0  0  0  0  0  0  0  0
   53.3963  155.9854   -6.8381 H   0  0  0  0  0  0  0  0  0  0  0  0
   56.8652  156.8889   -3.4698 H   0  0  0  0  0  0  0  0  0  0  0  0
   56.5625  155.3453   -4.2748 H   0  0  0  0  0  0  0  0  0  0  0  0
   55.7859  155.3955   -6.7012 H   0  0  0  0  0  0  0  0  0  0  0  0
   55.5845  156.9731   -7.4735 H   0  0  0  0  0  0  0  0  0  0  0  0
   53.9933  154.7540   -4.7980 H   0  0  0  0  0  0  0  0  0  0  0  0
   59.8677  158.9059   -6.1865 H   0  0  0  0  0  0  0  0  0  0  0  0
   60.0904  157.6870   -7.4319 H   0  0  0  0  0  0  0  0  0  0  0  0
   59.6172  159.3351   -7.8878 H   0  0  0  0  0  0  0  0  0  0  0  0
   58.3855  157.2400   -5.0827 H   0  0  0  0  0  0  0  0  0  0  0  0
   57.6521  157.7992   -7.9990 H   0  0  0  0  0  0  0  0  0  0  0  0
   56.3485  159.2655   -6.2830 H   0  0  0  0  0  0  0  0  0  0  0  0
   57.5776  160.2312   -7.0642 H   0  0  0  0  0  0  0  0  0  0  0  0
   51.9070  155.6467   -4.9495 H   0  0  0  0  0  0  0  0  0  0  0  0
  1  3  1  0  0  0  0
  1  5  1  0  0  0  0
  2  4  1  0  0  0  0
  2  5  1  0  0  0  0
  3 10  1  0  0  0  0
  4 10  1  0  0  0  0
  5 12  1  0  0  0  0
  6  8  1  0  0  0  0
  7  8  1  0  0  0  0
  7  9  1  0  0  0  0
  7 10  1  0  0  0  0
  8 11  1  0  0  0  0
  9 13  1  0  0  0  0
  9 14  1  0  0  0  0
  9 15  1  0  0  0  0
  1 16  1  0  0  0  0
  1 17  1  0  0  0  0
  2 18  1  0  0  0  0
  2 19  1  0  0  0  0
  3 20  1  0  0  0  0
  3 21  1  0  0  0  0
  4 22  1  0  0  0  0
  4 23  1  0  0  0  0
  5 24  1  0  0  0  0
  6 25  1  0  0  0  0
  6 26  1  0  0  0  0
  6 27  1  0  0  0  0
  7 28  1  0  0  0  0
  8 29  1  0  0  0  0
 11 30  1  0  0  0  0
 11 31  1  0  0  0  0
 12 32  1  0  0  0  0
M  END
> <FRED Chemgauss4 score>
-4.700694

$$$$
C92799609	P145297781
  -OEChem-05122015083D

 38 40  0     1  0  0  0  0  0999 V2000
   61.4010  162.5591   -2.2488 C   0  0  0  0  0  0  0  0  0  0  0  0
   52.6846  155.0565   -3.9242 C   0  0  0  0  0  0  0  0  0  0  0  0
   54.2671  156.1738   -3.0695 C   0  0  0  0  0  0  0  0  0  0  0  0
   53.4458  157.0961   -3.6702 C   0  0  0  0  0  0  0  0  0  0  0  0
   60.5151  162.5391   -3.3056 C   0  0  0  0  0  0  0  0  0  0  0  0
   59.3487  161.3547   -1.8750 C   0  0  0  0  0  0  0  0  0  0  0  0
   55.4899  156.5730   -2.3363 C   0  0  0  0  0  0  0  0  0  0  0  0
   53.6723  158.5562   -3.7084 C   0  0  0  0  0  0  0  0  0  0  0  0
   55.8604  158.0438   -2.6951 C   0  0  2  0  0  0  0  0  0  0  0  0
   60.7231  163.1838   -4.6173 C   0  0  0  0  0  0  0  0  0  0  0  0
   57.1947  161.3938   -0.5493 C   0  0  0  0  0  0  0  0  0  0  0  0
   56.8971  158.5842   -1.7128 C   0  0  0  0  0  0  0  0  0  0  0  0
   58.2282  160.5338   -1.2738 C   0  0  1  0  0  0  0  0  0  0  0  0
   53.7911  154.9032   -3.2228 N   0  0  0  0  0  0  0  0  0  0  0  0
   59.3379  161.8486   -3.0932 N   0  0  0  0  0  0  0  0  0  0  0  0
   52.4329  156.3736   -4.2223 N   0  0  0  0  0  0  0  0  0  0  0  0
   54.6780  158.9451   -2.6922 N   0  0  0  0  0  0  0  0  0  0  0  0
   57.5696  159.7001   -2.2876 N   0  0  0  0  0  0  0  0  0  0  0  0
   60.7430  161.6825   -0.9298 S   0  0  0  0  0  0  0  0  0  0  0  0
   62.3717  163.0307   -2.1867 H   0  0  0  0  0  0  0  0  0  0  0  0
   52.0241  154.2645   -4.2477 H   0  0  0  0  0  0  0  0  0  0  0  0
   55.3007  156.4788   -1.2599 H   0  0  0  0  0  0  0  0  0  0  0  0
   56.3214  155.9064   -2.5906 H   0  0  0  0  0  0  0  0  0  0  0  0
   54.0253  158.8507   -4.7035 H   0  0  0  0  0  0  0  0  0  0  0  0
   52.7417  159.0965   -3.5068 H   0  0  0  0  0  0  0  0  0  0  0  0
   56.3039  158.0650   -3.7000 H   0  0  0  0  0  0  0  0  0  0  0  0
   61.2192  162.4975   -5.3228 H   0  0  0  0  0  0  0  0  0  0  0  0
   59.7724  163.5059   -5.0752 H   0  0  0  0  0  0  0  0  0  0  0  0
   61.3460  164.0912   -4.5380 H   0  0  0  0  0  0  0  0  0  0  0  0
   56.7376  162.1195   -1.2309 H   0  0  0  0  0  0  0  0  0  0  0  0
   56.3964  160.7675   -0.1353 H   0  0  0  0  0  0  0  0  0  0  0  0
   57.6358  161.9473    0.2873 H   0  0  0  0  0  0  0  0  0  0  0  0
   57.6145  157.8027   -1.5010 H   0  0  0  0  0  0  0  0  0  0  0  0
   56.3943  158.8959   -0.8075 H   0  0  0  0  0  0  0  0  0  0  0  0
   58.6490  159.8307   -0.5445 H   0  0  0  0  0  0  0  0  0  0  0  0
   51.6474  156.7303   -4.7504 H   0  0  0  0  0  0  0  0  0  0  0  0
   54.9741  159.9050   -2.8674 H   0  0  0  0  0  0  0  0  0  0  0  0
   56.9110  160.2990   -2.8075 H   0  0  0  0  0  0  0  0  0  0  0  0
  1  5  2  0  0  0  0
  1 19  1  0  0  0  0
  2 14  2  0  0  0  0
  2 16  1  0  0  0  0
  3  4  2  0  0  0  0
  3  7  1  0  0  0  0
  3 14  1  0  0  0  0
  4  8  1  0  0  0  0
  4 16  1  0  0  0  0
  5 10  1  0  0  0  0
  5 15  1  0  0  0  0
  6 13  1  0  0  0  0
  6 15  2  0  0  0  0
  6 19  1  0  0  0  0
  7  9  1  0  0  0  0
  8 17  1  0  0  0  0
  9 12  1  0  0  0  0
  9 17  1  0  0  0  0
 11 13  1  0  0  0  0
 12 18  1  0  0  0  0
 13 18  1  0  0  0  0
  1 20  1  0  0  0  0
  2 21  1  0  0  0  0
  7 22  1  0  0  0  0
  7 23  1  0  0  0  0
  8 24  1  0  0  0  0
  8 25  1  0  0  0  0
  9 26  1  0  0  0  0
 10 27  1  0  0  0  0
 10 28  1  0  0  0  0
 10 29  1  0  0  0  0
 11 30  1  0  0  0  0
 11 31  1  0  0  0  0
 11 32  1  0  0  0  0
 12 33  1  0  0  0  0
 12 34  1  0  0  0  0
 13 35  1  0  0  0  0
 16 36  1  0  0  0  0
 17 37  1  0  0  0  0
 18 38  1  0  0  0  0
M  END
> <FRED Chemgauss4 score>
-4.695610

$$$$
C40362617	P61274397
  -OEChem-05122015083D

 35 35  0     1  0  0  0  0  0999 V2000
   52.4849  158.5781   -6.3334 C   0  0  0  0  0  0  0  0  0  0  0  0
   55.8052  154.6077   -6.7053 C   0  0  0  0  0  0  0  0  0  0  0  0
   57.5648  154.9714   -4.9476 C   0  0  0  0  0  0  0  0  0  0  0  0
   54.7308  154.7490   -5.6312 C   0  0  0  0  0  0  0  0  0  0  0  0
   56.4633  155.1068   -3.9006 C   0  0  0  0  0  0  0  0  0  0  0  0
   57.1193  154.0802   -6.1144 C   0  0  0  0  0  0  0  0  0  0  0  0
   58.2048  154.0027   -7.1851 C   0  0  0  0  0  0  0  0  0  0  0  0
   54.3541  159.1045   -4.7081 C   0  0  0  0  0  0  0  0  0  0  0  0
   53.6027  158.0190   -5.4663 C   0  0  1  0  0  0  0  0  0  0  0  0
   55.2258  155.6398   -4.5414 N   0  0  0  0  0  0  0  0  0  0  0  0
   52.1562  157.8558   -7.4495 N   0  0  0  0  0  0  0  0  0  0  0  0
   52.9939  157.0467   -4.5380 N   0  0  0  0  0  0  0  0  0  0  0  0
   54.6361  157.1767   -2.5691 O   0  0  0  0  0  0  0  0  0  0  0  0
   53.3156  155.0595   -2.9135 O   0  0  0  0  0  0  0  0  0  0  0  0
   51.6978  160.0060   -5.9529 S   0  0  0  0  0  0  0  0  0  0  0  0
   54.0249  156.2034   -3.4557 S   0  0  0  0  0  0  0  0  0  0  0  0
   55.4479  153.9311   -7.4903 H   0  0  0  0  0  0  0  0  0  0  0  0
   55.9768  155.5844   -7.1766 H   0  0  0  0  0  0  0  0  0  0  0  0
   57.8319  155.9674   -5.3242 H   0  0  0  0  0  0  0  0  0  0  0  0
   58.4633  154.5539   -4.4782 H   0  0  0  0  0  0  0  0  0  0  0  0
   53.8338  155.1884   -6.0811 H   0  0  0  0  0  0  0  0  0  0  0  0
   54.4656  153.7695   -5.2169 H   0  0  0  0  0  0  0  0  0  0  0  0
   56.2503  154.1380   -3.4342 H   0  0  0  0  0  0  0  0  0  0  0  0
   56.7974  155.7998   -3.1208 H   0  0  0  0  0  0  0  0  0  0  0  0
   56.9467  153.0653   -5.7320 H   0  0  0  0  0  0  0  0  0  0  0  0
   58.4003  154.9961   -7.5860 H   0  0  0  0  0  0  0  0  0  0  0  0
   57.8804  153.3497   -7.9939 H   0  0  0  0  0  0  0  0  0  0  0  0
   59.1224  153.6060   -6.7531 H   0  0  0  0  0  0  0  0  0  0  0  0
   53.6705  159.6879   -4.0824 H   0  0  0  0  0  0  0  0  0  0  0  0
   55.1185  158.6619   -4.0602 H   0  0  0  0  0  0  0  0  0  0  0  0
   54.8656  159.7991   -5.3833 H   0  0  0  0  0  0  0  0  0  0  0  0
   54.3149  157.4563   -6.0805 H   0  0  0  0  0  0  0  0  0  0  0  0
   52.6212  156.9876   -7.6930 H   0  0  0  0  0  0  0  0  0  0  0  0
   51.4161  158.1638   -8.0716 H   0  0  0  0  0  0  0  0  0  0  0  0
   52.2351  156.4963   -4.9609 H   0  0  0  0  0  0  0  0  0  0  0  0
  1  9  1  0  0  0  0
  1 11  1  0  0  0  0
  1 15  2  0  0  0  0
  2  4  1  0  0  0  0
  2  6  1  0  0  0  0
  3  5  1  0  0  0  0
  3  6  1  0  0  0  0
  4 10  1  0  0  0  0
  5 10  1  0  0  0  0
  6  7  1  0  0  0  0
  8  9  1  0  0  0  0
  9 12  1  0  0  0  0
 10 16  1  0  0  0  0
 12 16  1  0  0  0  0
 13 16  2  0  0  0  0
 14 16  2  0  0  0  0
  2 17  1  0  0  0  0
  2 18  1  0  0  0  0
  3 19  1  0  0  0  0
  3 20  1  0  0  0  0
  4 21  1  0  0  0  0
  4 22  1  0  0  0  0
  5 23  1  0  0  0  0
  5 24  1  0  0  0  0
  6 25  1  0  0  0  0
  7 26  1  0  0  0  0
  7 27  1  0  0  0  0
  7 28  1  0  0  0  0
  8 29  1  0  0  0  0
  8 30  1  0  0  0  0
  8 31  1  0  0  0  0
  9 32  1  0  0  0  0
 11 33  1  0  0  0  0
 11 34  1  0  0  0  0
 12 35  1  0  0  0  0
M  END
> <FRED Chemgauss4 score>
-4.694915

$$$$
C87445867	P136802587
  -OEChem-05122015083D

 16 16  0     0  0  0  0  0  0999 V2000
   54.6520  159.2896   -2.6642 C   0  0  0  0  0  0  0  0  0  0  0  0
   54.3526  156.2157   -4.7871 C   0  0  0  0  0  0  0  0  0  0  0  0
   54.9614  154.6712   -6.0524 C   0  0  0  0  0  0  0  0  0  0  0  0
   54.1914  157.0083   -3.6059 C   0  0  0  0  0  0  0  0  0  0  0  0
   55.5346  153.4721   -6.6843 C   0  0  0  0  0  0  0  0  0  0  0  0
   54.6457  160.1040   -1.8382 N   0  0  0  0  0  0  0  0  0  0  0  0
   55.0733  155.0560   -4.8023 N   0  0  0  0  0  0  0  0  0  0  0  0
   53.8019  156.5728   -5.9493 N   0  0  0  0  0  0  0  0  0  0  0  0
   54.2064  155.5684   -6.7416 N   0  0  0  0  0  0  0  0  0  0  0  0
   54.6608  158.3404   -3.6289 N   0  0  0  0  0  0  0  0  0  0  0  0
   53.6654  156.5394   -2.5664 O   0  0  0  0  0  0  0  0  0  0  0  0
   54.8437  152.6137   -6.6175 H   0  0  0  0  0  0  0  0  0  0  0  0
   55.7628  153.6314   -7.7537 H   0  0  0  0  0  0  0  0  0  0  0  0
   56.4879  153.1675   -6.2154 H   0  0  0  0  0  0  0  0  0  0  0  0
   53.9323  155.5657   -7.7170 H   0  0  0  0  0  0  0  0  0  0  0  0
   55.0708  158.6330   -4.5115 H   0  0  0  0  0  0  0  0  0  0  0  0
  1  6  3  0  0  0  0
  1 10  1  0  0  0  0
  2  4  1  0  0  0  0
  2  7  1  0  0  0  0
  2  8  2  0  0  0  0
  3  5  1  0  0  0  0
  3  7  2  0  0  0  0
  3  9  1  0  0  0  0
  4 10  1  0  0  0  0
  4 11  2  0  0  0  0
  8  9  1  0  0  0  0
  5 12  1  0  0  0  0
  5 13  1  0  0  0  0
  5 14  1  0  0  0  0
  9 15  1  0  0  0  0
 10 16  1  0  0  0  0
M  END
> <FRED Chemgauss4 score>
-4.694254

$$$$
C69791155	P107540367
  -OEChem-05122015083D

 19 18  0     0  0  0  0  0  0999 V2000
   57.6711  155.7205   -6.9651 C   0  0  0  0  0  0  0  0  0  0  0  0
   56.8378  155.1232   -6.3405 C   0  0  0  0  0  0  0  0  0  0  0  0
   54.3951  156.9907   -3.3399 C   0  0  0  0  0  0  0  0  0  0  0  0
   55.8166  154.3881   -5.5782 C   0  0  0  0  0  0  0  0  0  0  0  0
   54.1553  158.4367   -3.6918 C   0  0  0  0  0  0  0  0  0  0  0  0
   55.6025  154.9822   -4.1897 C   0  0  0  0  0  0  0  0  0  0  0  0
   52.9551  158.5469   -4.5337 N   0  0  0  0  0  0  0  0  0  0  0  0
   55.2068  156.3694   -4.2782 N   0  0  0  0  0  0  0  0  0  0  0  0
   53.9242  156.4509   -2.3423 O   0  0  0  0  0  0  0  0  0  0  0  0
   58.4107  156.2503   -7.5187 H   0  0  0  0  0  0  0  0  0  0  0  0
   56.1033  153.3326   -5.4996 H   0  0  0  0  0  0  0  0  0  0  0  0
   54.8692  154.4229   -6.1287 H   0  0  0  0  0  0  0  0  0  0  0  0
   54.0085  159.0189   -2.7773 H   0  0  0  0  0  0  0  0  0  0  0  0
   55.0156  158.8328   -4.2391 H   0  0  0  0  0  0  0  0  0  0  0  0
   54.8395  154.4218   -3.6383 H   0  0  0  0  0  0  0  0  0  0  0  0
   56.5345  154.9228   -3.6182 H   0  0  0  0  0  0  0  0  0  0  0  0
   52.8764  159.3445   -5.1189 H   0  0  0  0  0  0  0  0  0  0  0  0
   52.1964  157.9393   -4.3334 H   0  0  0  0  0  0  0  0  0  0  0  0
   55.5395  156.9168   -5.0666 H   0  0  0  0  0  0  0  0  0  0  0  0
  1  2  3  0  0  0  0
  2  4  1  0  0  0  0
  3  5  1  0  0  0  0
  3  8  1  0  0  0  0
  3  9  2  0  0  0  0
  4  6  1  0  0  0  0
  5  7  1  0  0  0  0
  6  8  1  0  0  0  0
  1 10  1  0  0  0  0
  4 11  1  0  0  0  0
  4 12  1  0  0  0  0
  5 13  1  0  0  0  0
  5 14  1  0  0  0  0
  6 15  1  0  0  0  0
  6 16  1  0  0  0  0
  7 17  1  0  0  0  0
  7 18  1  0  0  0  0
  8 19  1  0  0  0  0
M  END
> <FRED Chemgauss4 score>
-4.691983

$$$$
C05828092	P128165759
  -OEChem-05122015083D

 11 10  0     0  0  0  0  0  0999 V2000
   53.8715  156.2893   -3.4891 C   0  0  0  0  0  0  0  0  0  0  0  0
   55.8896  154.6566   -6.5972 C   0  0  0  0  0  0  0  0  0  0  0  0
   53.9092  155.5370   -5.6343 C   0  0  0  0  0  0  0  0  0  0  0  0
   53.2999  156.7568   -2.5938 N   0  0  0  0  0  0  0  0  0  0  0  0
   57.0118  154.3915   -6.4669 N   0  0  0  0  0  0  0  0  0  0  0  0
   54.5419  155.7489   -4.5171 N   0  0  0  0  0  0  0  0  0  0  0  0
   52.5920  155.8010   -5.9229 N   0  0  0  0  0  0  0  0  0  0  0  0
   54.5923  154.9595   -6.7575 N   0  0  0  0  0  0  0  0  0  0  0  0
   51.9749  156.2099   -5.2294 H   0  0  0  0  0  0  0  0  0  0  0  0
   52.1889  155.5966   -6.8306 H   0  0  0  0  0  0  0  0  0  0  0  0
   54.0734  154.7982   -7.6289 H   0  0  0  0  0  0  0  0  0  0  0  0
  1  4  3  0  0  0  0
  1  6  1  0  0  0  0
  2  5  3  0  0  0  0
  2  8  1  0  0  0  0
  3  6  2  0  0  0  0
  3  7  1  0  0  0  0
  3  8  1  0  0  0  0
  7  9  1  0  0  0  0
  7 10  1  0  0  0  0
  8 11  1  0  0  0  0
M  END
> <FRED Chemgauss4 score>
-4.689872

$$$$
C04578981	P112129092
  -OEChem-05122015083D

 23 23  0     1  0  0  0  0  0999 V2000
   54.0324  156.3591   -6.1614 C   0  0  2  0  0  0  0  0  0  0  0  0
   53.4924  155.7536   -4.8828 C   0  0  1  0  0  0  0  0  0  0  0  0
   55.5151  156.0454   -6.0050 C   0  0  2  0  0  0  0  0  0  0  0  0
   54.5587  156.1547   -3.8708 C   0  0  1  0  0  0  0  0  0  0  0  0
   57.6941  156.6308   -6.6434 C   0  0  0  0  0  0  0  0  0  0  0  0
   55.3336  157.7948   -2.3677 C   0  0  0  0  0  0  0  0  0  0  0  0
   55.8038  156.1374   -4.5955 O   0  0  0  0  0  0  0  0  0  0  0  0
   53.8316  157.7696   -6.1705 O   0  0  0  0  0  0  0  0  0  0  0  0
   52.2021  156.2007   -4.5353 O   0  0  0  0  0  0  0  0  0  0  0  0
   56.3105  156.9195   -6.7860 O   0  0  0  0  0  0  0  0  0  0  0  0
   54.3265  157.4417   -3.3089 O   0  0  0  0  0  0  0  0  0  0  0  0
   53.6184  155.9105   -7.0100 H   0  0  0  0  0  0  0  0  0  0  0  0
   53.4155  154.6169   -4.9617 H   0  0  0  0  0  0  0  0  0  0  0  0
   55.7261  155.0017   -6.3490 H   0  0  0  0  0  0  0  0  0  0  0  0
   54.6387  155.4200   -3.0742 H   0  0  0  0  0  0  0  0  0  0  0  0
   58.2765  157.3219   -7.2577 H   0  0  0  0  0  0  0  0  0  0  0  0
   57.8862  155.6005   -6.9533 H   0  0  0  0  0  0  0  0  0  0  0  0
   57.9764  156.7524   -5.5949 H   0  0  0  0  0  0  0  0  0  0  0  0
   55.1209  158.7860   -1.9599 H   0  0  0  0  0  0  0  0  0  0  0  0
   56.3097  157.7931   -2.8593 H   0  0  0  0  0  0  0  0  0  0  0  0
   55.3349  157.0623   -1.5569 H   0  0  0  0  0  0  0  0  0  0  0  0
   54.1935  158.1108   -7.0083 H   0  0  0  0  0  0  0  0  0  0  0  0
   51.6169  155.9536   -5.2683 H   0  0  0  0  0  0  0  0  0  0  0  0
  1  2  1  0  0  0  0
  1  3  1  0  0  0  0
  1  8  1  0  0  0  0
  2  4  1  0  0  0  0
  2  9  1  0  0  0  0
  3  7  1  0  0  0  0
  3 10  1  0  0  0  0
  4  7  1  0  0  0  0
  4 11  1  0  0  0  0
  5 10  1  0  0  0  0
  6 11  1  0  0  0  0
  1 12  1  0  0  0  0
  2 13  1  0  0  0  0
  3 14  1  0  0  0  0
  4 15  1  0  0  0  0
  5 16  1  0  0  0  0
  5 17  1  0  0  0  0
  5 18  1  0  0  0  0
  6 19  1  0  0  0  0
  6 20  1  0  0  0  0
  6 21  1  0  0  0  0
  8 22  1  0  0  0  0
  9 23  1  0  0  0  0
M  END
> <FRED Chemgauss4 score>
-4.689811

$$$$
C01561259	P07945582
  -OEChem-05122015083D

 18 18  0     0  0  0  0  0  0999 V2000
   54.7430  156.7325   -3.1589 C   0  0  0  0  0  0  0  0  0  0  0  0
   56.5847  157.1932   -4.4109 C   0  0  0  0  0  0  0  0  0  0  0  0
   55.2708  158.0563   -2.6522 C   0  0  0  0  0  0  0  0  0  0  0  0
   55.3696  155.0604   -4.9111 C   0  0  0  0  0  0  0  0  0  0  0  0
   54.5159  155.3222   -6.1383 C   0  0  0  0  0  0  0  0  0  0  0  0
   56.4132  158.2410   -3.5030 N   0  0  0  0  0  0  0  0  0  0  0  0
   55.5600  156.2965   -4.1787 N   0  0  0  0  0  0  0  0  0  0  0  0
   53.7503  156.1774   -2.7069 O   0  0  0  0  0  0  0  0  0  0  0  0
   57.4794  157.1114   -5.2423 O   0  0  0  0  0  0  0  0  0  0  0  0
   53.2391  155.7988   -5.7325 O   0  0  0  0  0  0  0  0  0  0  0  0
   54.5539  158.8620   -2.8177 H   0  0  0  0  0  0  0  0  0  0  0  0
   55.5929  157.9870   -1.6119 H   0  0  0  0  0  0  0  0  0  0  0  0
   54.8929  154.3360   -4.2432 H   0  0  0  0  0  0  0  0  0  0  0  0
   56.3537  154.6831   -5.2051 H   0  0  0  0  0  0  0  0  0  0  0  0
   54.3677  154.3928   -6.6969 H   0  0  0  0  0  0  0  0  0  0  0  0
   54.9759  156.0654   -6.7977 H   0  0  0  0  0  0  0  0  0  0  0  0
   57.0294  159.0461   -3.4503 H   0  0  0  0  0  0  0  0  0  0  0  0
   52.7277  155.9527   -6.5431 H   0  0  0  0  0  0  0  0  0  0  0  0
  1  3  1  0  0  0  0
  1  7  1  0  0  0  0
  1  8  2  0  0  0  0
  2  6  1  0  0  0  0
  2  7  1  0  0  0  0
  2  9  2  0  0  0  0
  3  6  1  0  0  0  0
  4  5  1  0  0  0  0
  4  7  1  0  0  0  0
  5 10  1  0  0  0  0
  3 11  1  0  0  0  0
  3 12  1  0  0  0  0
  4 13  1  0  0  0  0
  4 14  1  0  0  0  0
  5 15  1  0  0  0  0
  5 16  1  0  0  0  0
  6 17  1  0  0  0  0
 10 18  1  0  0  0  0
M  END
> <FRED Chemgauss4 score>
-4.682288

$$$$
C43423581	P65690109
  -OEChem-05122015083D

 43 45  0     1  0  0  0  0  0999 V2000
   56.0265  153.7969   -4.9951 C   0  0  0  0  0  0  0  0  0  0  0  0
   56.1835  154.9920   -4.2353 C   0  0  0  0  0  0  0  0  0  0  0  0
   55.5186  154.0453   -6.2512 C   0  0  0  0  0  0  0  0  0  0  0  0
   55.7897  156.1084   -4.9399 C   0  0  0  0  0  0  0  0  0  0  0  0
   57.3127  161.5944   -3.1466 C   0  0  0  0  0  0  0  0  0  0  0  0
   56.5518  160.2593   -3.1911 C   0  0  0  0  0  0  0  0  0  0  0  0
   58.6653  161.3423   -3.8274 C   0  0  0  0  0  0  0  0  0  0  0  0
   58.0844  157.4487   -5.2676 C   0  0  0  0  0  0  0  0  0  0  0  0
   59.5239  157.9417   -5.0587 C   0  0  0  0  0  0  0  0  0  0  0  0
   57.2939  159.4566   -4.2550 C   0  0  1  0  0  0  0  0  0  0  0  0
   58.7413  159.8288   -3.9473 C   0  0  1  0  0  0  0  0  0  0  0  0
   55.2148  153.0789   -7.3290 C   0  0  0  0  0  0  0  0  0  0  0  0
   55.5277  157.3605   -1.9406 C   0  0  0  0  0  0  0  0  0  0  0  0
   55.7996  157.5639   -4.4922 C   0  0  1  0  0  0  0  0  0  0  0  0
   54.8872  157.8019   -3.2578 C   0  0  1  0  0  0  0  0  0  0  0  0
   57.1723  157.9981   -4.2425 N   0  0  1  0  0  0  0  0  0  0  0  0
   53.6282  157.0995   -3.4150 N   0  0  0  0  0  0  0  0  0  0  0  0
   59.5869  159.3737   -4.9909 O   0  0  0  0  0  0  0  0  0  0  0  0
   55.2333  155.7137   -6.5106 S   0  0  0  0  0  0  0  0  0  0  0  0
   56.2761  152.8069   -4.6348 H   0  0  0  0  0  0  0  0  0  0  0  0
   56.5677  155.0266   -3.2238 H   0  0  0  0  0  0  0  0  0  0  0  0
   56.7628  162.3776   -3.6797 H   0  0  0  0  0  0  0  0  0  0  0  0
   57.4421  161.9273   -2.1113 H   0  0  0  0  0  0  0  0  0  0  0  0
   56.6132  159.7671   -2.2125 H   0  0  0  0  0  0  0  0  0  0  0  0
   55.4934  160.4009   -3.4302 H   0  0  0  0  0  0  0  0  0  0  0  0
   58.6976  161.8171   -4.8155 H   0  0  0  0  0  0  0  0  0  0  0  0
   59.5009  161.7491   -3.2493 H   0  0  0  0  0  0  0  0  0  0  0  0
   57.7489  157.7524   -6.2683 H   0  0  0  0  0  0  0  0  0  0  0  0
   58.0773  156.3532   -5.2306 H   0  0  0  0  0  0  0  0  0  0  0  0
   59.9564  157.5200   -4.1430 H   0  0  0  0  0  0  0  0  0  0  0  0
   60.1512  157.6221   -5.8970 H   0  0  0  0  0  0  0  0  0  0  0  0
   57.0147  159.8367   -5.2504 H   0  0  0  0  0  0  0  0  0  0  0  0
   59.0811  159.4087   -2.9888 H   0  0  0  0  0  0  0  0  0  0  0  0
   54.1785  152.7145   -7.2512 H   0  0  0  0  0  0  0  0  0  0  0  0
   55.3415  153.5254   -8.3288 H   0  0  0  0  0  0  0  0  0  0  0  0
   55.8840  152.2036   -7.2964 H   0  0  0  0  0  0  0  0  0  0  0  0
   55.8060  156.3012   -1.9715 H   0  0  0  0  0  0  0  0  0  0  0  0
   54.8563  157.5177   -1.0911 H   0  0  0  0  0  0  0  0  0  0  0  0
   56.4414  157.9330   -1.7437 H   0  0  0  0  0  0  0  0  0  0  0  0
   55.4155  158.1799   -5.3167 H   0  0  0  0  0  0  0  0  0  0  0  0
   54.6292  158.8643   -3.1734 H   0  0  0  0  0  0  0  0  0  0  0  0
   53.2232  157.0406   -4.3293 H   0  0  0  0  0  0  0  0  0  0  0  0
   53.1004  156.8729   -2.5942 H   0  0  0  0  0  0  0  0  0  0  0  0
  1  2  1  0  0  0  0
  1  3  2  0  0  0  0
  2  4  2  0  0  0  0
  3 12  1  0  0  0  0
  3 19  1  0  0  0  0
  4 14  1  0  0  0  0
  4 19  1  0  0  0  0
  5  6  1  0  0  0  0
  5  7  1  0  0  0  0
  6 10  1  0  0  0  0
  7 11  1  0  0  0  0
  8  9  1  0  0  0  0
  8 16  1  0  0  0  0
  9 18  1  0  0  0  0
 10 11  1  0  0  0  0
 10 16  1  0  0  0  0
 11 18  1  0  0  0  0
 13 15  1  0  0  0  0
 14 15  1  0  0  0  0
 14 16  1  0  0  0  0
 15 17  1  0  0  0  0
  1 20  1  0  0  0  0
  2 21  1  0  0  0  0
  5 22  1  0  0  0  0
  5 23  1  0  0  0  0
  6 24  1  0  0  0  0
  6 25  1  0  0  0  0
  7 26  1  0  0  0  0
  7 27  1  0  0  0  0
  8 28  1  0  0  0  0
  8 29  1  0  0  0  0
  9 30  1  0  0  0  0
  9 31  1  0  0  0  0
 10 32  1  0  0  0  0
 11 33  1  0  0  0  0
 12 34  1  0  0  0  0
 12 35  1  0  0  0  0
 12 36  1  0  0  0  0
 13 37  1  0  0  0  0
 13 38  1  0  0  0  0
 13 39  1  0  0  0  0
 14 40  1  0  0  0  0
 15 41  1  0  0  0  0
 17 42  1  0  0  0  0
 17 43  1  0  0  0  0
M  END
> <FRED Chemgauss4 score>
-4.675232

$$$$
C95923249	P151026232
  -OEChem-05122015083D

 25 25  0     1  0  0  0  0  0999 V2000
   56.0453  153.8875   -6.7086 C   0  0  0  0  0  0  0  0  0  0  0  0
   54.8449  153.7782   -5.7741 C   0  0  0  0  0  0  0  0  0  0  0  0
   57.0572  154.8902   -6.1752 C   0  0  0  0  0  0  0  0  0  0  0  0
   54.2668  155.1538   -5.4187 C   0  0  1  0  0  0  0  0  0  0  0  0
   55.3707  156.1349   -4.9824 C   0  0  1  0  0  0  0  0  0  0  0  0
   55.8793  155.8609   -3.5658 C   0  0  0  0  0  0  0  0  0  0  0  0
   54.9190  156.3905   -2.5161 C   0  0  0  0  0  0  0  0  0  0  0  0
   53.5559  155.7220   -6.5713 N   0  0  0  0  0  0  0  0  0  0  0  0
   56.4553  156.1573   -5.9197 O   0  0  0  0  0  0  0  0  0  0  0  0
   53.6679  155.7361   -2.6758 O   0  0  0  0  0  0  0  0  0  0  0  0
   56.5209  152.9007   -6.7851 H   0  0  0  0  0  0  0  0  0  0  0  0
   55.7185  154.1741   -7.7150 H   0  0  0  0  0  0  0  0  0  0  0  0
   54.0721  153.1560   -6.2597 H   0  0  0  0  0  0  0  0  0  0  0  0
   55.1407  153.2377   -4.8587 H   0  0  0  0  0  0  0  0  0  0  0  0
   57.4789  154.5257   -5.2288 H   0  0  0  0  0  0  0  0  0  0  0  0
   57.8977  155.0199   -6.8732 H   0  0  0  0  0  0  0  0  0  0  0  0
   53.5549  155.0383   -4.6029 H   0  0  0  0  0  0  0  0  0  0  0  0
   54.9282  157.1803   -4.9679 H   0  0  0  0  0  0  0  0  0  0  0  0
   56.8637  156.3202   -3.4371 H   0  0  0  0  0  0  0  0  0  0  0  0
   56.0226  154.7848   -3.4319 H   0  0  0  0  0  0  0  0  0  0  0  0
   55.2906  156.1902   -1.5061 H   0  0  0  0  0  0  0  0  0  0  0  0
   54.7655  157.4683   -2.6317 H   0  0  0  0  0  0  0  0  0  0  0  0
   53.4324  156.7102   -6.6042 H   0  0  0  0  0  0  0  0  0  0  0  0
   53.0522  155.0990   -7.1639 H   0  0  0  0  0  0  0  0  0  0  0  0
   53.0756  156.0929   -1.9941 H   0  0  0  0  0  0  0  0  0  0  0  0
  1  2  1  0  0  0  0
  1  3  1  0  0  0  0
  2  4  1  0  0  0  0
  3  9  1  0  0  0  0
  4  5  1  0  0  0  0
  4  8  1  0  0  0  0
  5  6  1  0  0  0  0
  5  9  1  0  0  0  0
  6  7  1  0  0  0  0
  7 10  1  0  0  0  0
  1 11  1  0  0  0  0
  1 12  1  0  0  0  0
  2 13  1  0  0  0  0
  2 14  1  0  0  0  0
  3 15  1  0  0  0  0
  3 16  1  0  0  0  0
  4 17  1  0  0  0  0
  5 18  1  0  0  0  0
  6 19  1  0  0  0  0
  6 20  1  0  0  0  0
  7 21  1  0  0  0  0
  7 22  1  0  0  0  0
  8 23  1  0  0  0  0
  8 24  1  0  0  0  0
 10 25  1  0  0  0  0
M  END
> <FRED Chemgauss4 score>
-4.667439

$$$$
C59506286	P90579909
  -OEChem-05122015083D

 17 16  0     0  0  0  0  0  0999 V2000
   54.0955  155.8942   -3.7957 C   0  0  0  0  0  0  0  0  0  0  0  0
   56.1403  155.7818   -5.2837 C   0  0  0  0  0  0  0  0  0  0  0  0
   56.5270  157.1989   -5.6654 C   0  0  0  0  0  0  0  0  0  0  0  0
   51.9502  156.1058   -4.8846 N   0  0  0  0  0  0  0  0  0  0  0  0
   55.4606  155.7913   -4.0025 N   0  0  0  0  0  0  0  0  0  0  0  0
   53.3278  155.9966   -4.9407 N   0  0  0  0  0  0  0  0  0  0  0  0
   55.3529  157.9911   -5.7918 O   0  0  0  0  0  0  0  0  0  0  0  0
   53.3334  155.9023   -2.2981 S   0  0  0  0  0  0  0  0  0  0  0  0
   55.4673  155.3406   -6.0257 H   0  0  0  0  0  0  0  0  0  0  0  0
   57.0326  155.1551   -5.1919 H   0  0  0  0  0  0  0  0  0  0  0  0
   57.0408  157.1998   -6.6318 H   0  0  0  0  0  0  0  0  0  0  0  0
   57.1798  157.6544   -4.9137 H   0  0  0  0  0  0  0  0  0  0  0  0
   51.6686  156.6975   -5.6652 H   0  0  0  0  0  0  0  0  0  0  0  0
   51.7306  156.6310   -4.0394 H   0  0  0  0  0  0  0  0  0  0  0  0
   56.0440  155.7104   -3.1753 H   0  0  0  0  0  0  0  0  0  0  0  0
   53.7633  155.9951   -5.8576 H   0  0  0  0  0  0  0  0  0  0  0  0
   55.6435  158.8846   -6.0354 H   0  0  0  0  0  0  0  0  0  0  0  0
  1  5  1  0  0  0  0
  1  6  1  0  0  0  0
  1  8  2  0  0  0  0
  2  3  1  0  0  0  0
  2  5  1  0  0  0  0
  3  7  1  0  0  0  0
  4  6  1  0  0  0  0
  2  9  1  0  0  0  0
  2 10  1  0  0  0  0
  3 11  1  0  0  0  0
  3 12  1  0  0  0  0
  4 13  1  0  0  0  0
  4 14  1  0  0  0  0
  5 15  1  0  0  0  0
  6 16  1  0  0  0  0
  7 17  1  0  0  0  0
M  END
> <FRED Chemgauss4 score>
-4.665034

$$$$
C82915337	P129630570
  -OEChem-05122015083D

 36 36  0     1  0  0  0  0  0999 V2000
   57.6385  160.3304   -2.5869 C   0  0  0  0  0  0  0  0  0  0  0  0
   58.9428  160.5787   -4.5953 C   0  0  0  0  0  0  0  0  0  0  0  0
   57.8369  161.8230   -2.3004 C   0  0  1  0  0  0  0  0  0  0  0  0
   59.1175  162.0667   -4.2710 C   0  0  2  0  0  0  0  0  0  0  0  0
   57.8738  162.0933   -0.8024 C   0  0  0  0  0  0  0  0  0  0  0  0
   60.4570  162.5842   -4.7770 C   0  0  0  0  0  0  0  0  0  0  0  0
   55.8209  156.9468   -5.2073 C   0  0  0  0  0  0  0  0  0  0  0  0
   57.4816  158.6763   -4.3364 C   0  0  0  0  0  0  0  0  0  0  0  0
   55.3763  158.0809   -2.9649 C   0  0  0  0  0  0  0  0  0  0  0  0
   56.0067  158.2180   -4.3679 C   0  0  2  0  0  0  0  0  0  0  0  0
   57.6715  160.0944   -4.0377 N   0  0  0  0  0  0  0  0  0  0  0  0
   54.0641  157.4488   -2.9381 N   0  0  0  0  0  0  0  0  0  0  0  0
   59.0825  162.2626   -2.8531 O   0  0  0  0  0  0  0  0  0  0  0  0
   55.2625  159.2623   -5.0213 O   0  0  0  0  0  0  0  0  0  0  0  0
   58.4262  159.7459   -2.0922 H   0  0  0  0  0  0  0  0  0  0  0  0
   56.6731  160.0101   -2.1770 H   0  0  0  0  0  0  0  0  0  0  0  0
   58.9505  160.4437   -5.6835 H   0  0  0  0  0  0  0  0  0  0  0  0
   59.7804  160.0037   -4.1776 H   0  0  0  0  0  0  0  0  0  0  0  0
   57.0239  162.4132   -2.7431 H   0  0  0  0  0  0  0  0  0  0  0  0
   58.3161  162.6594   -4.7313 H   0  0  0  0  0  0  0  0  0  0  0  0
   58.6750  161.5173   -0.3383 H   0  0  0  0  0  0  0  0  0  0  0  0
   56.9249  161.8078   -0.3477 H   0  0  0  0  0  0  0  0  0  0  0  0
   58.0489  163.1536   -0.6182 H   0  0  0  0  0  0  0  0  0  0  0  0
   61.2711  162.0104   -4.3334 H   0  0  0  0  0  0  0  0  0  0  0  0
   60.5777  163.6340   -4.5083 H   0  0  0  0  0  0  0  0  0  0  0  0
   60.5086  162.4892   -5.8621 H   0  0  0  0  0  0  0  0  0  0  0  0
   54.7688  156.6391   -5.2165 H   0  0  0  0  0  0  0  0  0  0  0  0
   56.4169  156.1070   -4.8381 H   0  0  0  0  0  0  0  0  0  0  0  0
   56.0953  157.1312   -6.2523 H   0  0  0  0  0  0  0  0  0  0  0  0
   58.0347  158.0745   -3.6042 H   0  0  0  0  0  0  0  0  0  0  0  0
   57.9505  158.4613   -5.3046 H   0  0  0  0  0  0  0  0  0  0  0  0
   56.0551  157.5151   -2.3139 H   0  0  0  0  0  0  0  0  0  0  0  0
   55.2975  159.0751   -2.5075 H   0  0  0  0  0  0  0  0  0  0  0  0
   53.4452  157.6762   -2.1881 H   0  0  0  0  0  0  0  0  0  0  0  0
   53.9028  156.6689   -3.5407 H   0  0  0  0  0  0  0  0  0  0  0  0
   55.3902  160.0527   -4.4810 H   0  0  0  0  0  0  0  0  0  0  0  0
  1  3  1  0  0  0  0
  1 11  1  0  0  0  0
  2  4  1  0  0  0  0
  2 11  1  0  0  0  0
  3  5  1  0  0  0  0
  3 13  1  0  0  0  0
  4  6  1  0  0  0  0
  4 13  1  0  0  0  0
  7 10  1  0  0  0  0
  8 10  1  0  0  0  0
  8 11  1  0  0  0  0
  9 10  1  0  0  0  0
  9 12  1  0  0  0  0
 10 14  1  0  0  0  0
  1 15  1  0  0  0  0
  1 16  1  0  0  0  0
  2 17  1  0  0  0  0
  2 18  1  0  0  0  0
  3 19  1  0  0  0  0
  4 20  1  0  0  0  0
  5 21  1  0  0  0  0
  5 22  1  0  0  0  0
  5 23  1  0  0  0  0
  6 24  1  0  0  0  0
  6 25  1  0  0  0  0
  6 26  1  0  0  0  0
  7 27  1  0  0  0  0
  7 28  1  0  0  0  0
  7 29  1  0  0  0  0
  8 30  1  0  0  0  0
  8 31  1  0  0  0  0
  9 32  1  0  0  0  0
  9 33  1  0  0  0  0
 12 34  1  0  0  0  0
 12 35  1  0  0  0  0
 14 36  1  0  0  0  0
M  END
> <FRED Chemgauss4 score>
-4.662151

$$$$
C44469494	P67171936
  -OEChem-05122015083D

 22 22  0     1  0  0  0  0  0999 V2000
   54.5359  154.3051   -6.8406 C   0  0  0  0  0  0  0  0  0  0  0  0
   56.6288  154.4028   -6.4652 C   0  0  0  0  0  0  0  0  0  0  0  0
   54.6874  155.2413   -5.8450 C   0  0  0  0  0  0  0  0  0  0  0  0
   56.7176  156.1269   -4.6556 C   0  0  0  0  0  0  0  0  0  0  0  0
   53.1568  155.4192   -3.8120 C   0  0  0  0  0  0  0  0  0  0  0  0
   53.6753  156.0891   -5.0942 C   0  0  2  0  0  0  0  0  0  0  0  0
   55.7480  153.7867   -7.2220 N   0  0  0  0  0  0  0  0  0  0  0  0
   56.0334  155.2926   -5.6149 N   0  0  0  0  0  0  0  0  0  0  0  0
   52.5538  156.3671   -2.9116 N   0  0  0  0  0  0  0  0  0  0  0  0
   52.5481  156.4462   -5.9640 N   0  0  0  0  0  0  0  0  0  0  0  0
   53.6166  153.9764   -7.3037 H   0  0  0  0  0  0  0  0  0  0  0  0
   57.6988  154.2474   -6.4875 H   0  0  0  0  0  0  0  0  0  0  0  0
   56.9709  157.0693   -5.1483 H   0  0  0  0  0  0  0  0  0  0  0  0
   56.0634  156.3076   -3.7981 H   0  0  0  0  0  0  0  0  0  0  0  0
   57.6229  155.6172   -4.3142 H   0  0  0  0  0  0  0  0  0  0  0  0
   52.3814  154.6819   -4.0492 H   0  0  0  0  0  0  0  0  0  0  0  0
   53.9483  154.9015   -3.2598 H   0  0  0  0  0  0  0  0  0  0  0  0
   54.1611  157.0303   -4.8054 H   0  0  0  0  0  0  0  0  0  0  0  0
   52.5136  156.1519   -1.9289 H   0  0  0  0  0  0  0  0  0  0  0  0
   52.0070  157.1228   -3.2906 H   0  0  0  0  0  0  0  0  0  0  0  0
   52.7392  156.6029   -6.9262 H   0  0  0  0  0  0  0  0  0  0  0  0
   51.6958  156.7129   -5.5287 H   0  0  0  0  0  0  0  0  0  0  0  0
  1  3  2  0  0  0  0
  1  7  1  0  0  0  0
  2  7  2  0  0  0  0
  2  8  1  0  0  0  0
  3  6  1  0  0  0  0
  3  8  1  0  0  0  0
  4  8  1  0  0  0  0
  5  6  1  0  0  0  0
  5  9  1  0  0  0  0
  6 10  1  0  0  0  0
  1 11  1  0  0  0  0
  2 12  1  0  0  0  0
  4 13  1  0  0  0  0
  4 14  1  0  0  0  0
  4 15  1  0  0  0  0
  5 16  1  0  0  0  0
  5 17  1  0  0  0  0
  6 18  1  0  0  0  0
  9 19  1  0  0  0  0
  9 20  1  0  0  0  0
 10 21  1  0  0  0  0
 10 22  1  0  0  0  0
M  END
> <FRED Chemgauss4 score>
-4.657730

$$$$
C83872281	P131208497
  -OEChem-05122015083D

 26 26  0     1  0  0  0  0  0999 V2000
   58.6511  160.7214   -1.2350 C   0  0  0  0  0  0  0  0  0  0  0  0
   55.3441  158.4816   -2.8497 C   0  0  0  0  0  0  0  0  0  0  0  0
   55.0596  156.1799   -5.7170 C   0  0  0  0  0  0  0  0  0  0  0  0
   56.5517  155.9445   -5.9254 C   0  0  0  0  0  0  0  0  0  0  0  0
   57.0718  157.7193   -4.4681 C   0  0  0  0  0  0  0  0  0  0  0  0
   55.5881  157.9859   -4.2377 C   0  0  1  0  0  0  0  0  0  0  0  0
   57.7658  159.8819   -0.4142 C   0  0  0  0  0  0  0  0  0  0  0  0
   56.3598  159.7947   -0.9986 C   0  0  0  0  0  0  0  0  0  0  0  0
   59.3514  161.3835   -1.8812 N   0  0  0  0  0  0  0  0  0  0  0  0
   54.8063  156.7549   -4.3912 N   0  0  0  0  0  0  0  0  0  0  0  0
   56.3876  159.2196   -2.3243 N   0  0  0  0  0  0  0  0  0  0  0  0
   54.2857  158.2177   -2.2912 O   0  0  0  0  0  0  0  0  0  0  0  0
   57.2747  157.1675   -5.7708 O   0  0  0  0  0  0  0  0  0  0  0  0
   54.6748  156.8581   -6.4856 H   0  0  0  0  0  0  0  0  0  0  0  0
   54.5105  155.2368   -5.8162 H   0  0  0  0  0  0  0  0  0  0  0  0
   56.9251  155.2410   -5.1733 H   0  0  0  0  0  0  0  0  0  0  0  0
   56.7623  155.5135   -6.9127 H   0  0  0  0  0  0  0  0  0  0  0  0
   57.6547  158.6370   -4.3781 H   0  0  0  0  0  0  0  0  0  0  0  0
   57.4523  156.9977   -3.7457 H   0  0  0  0  0  0  0  0  0  0  0  0
   55.2268  158.7366   -4.9160 H   0  0  0  0  0  0  0  0  0  0  0  0
   57.7055  160.3096    0.5933 H   0  0  0  0  0  0  0  0  0  0  0  0
   58.1983  158.8797   -0.3123 H   0  0  0  0  0  0  0  0  0  0  0  0
   55.7356  159.1624   -0.3588 H   0  0  0  0  0  0  0  0  0  0  0  0
   55.8932  160.7851   -1.0427 H   0  0  0  0  0  0  0  0  0  0  0  0
   53.8292  156.9887   -4.3300 H   0  0  0  0  0  0  0  0  0  0  0  0
   57.2135  159.3647   -2.8971 H   0  0  0  0  0  0  0  0  0  0  0  0
  1  7  1  0  0  0  0
  1  9  3  0  0  0  0
  2  6  1  0  0  0  0
  2 11  1  0  0  0  0
  2 12  2  0  0  0  0
  3  4  1  0  0  0  0
  3 10  1  0  0  0  0
  4 13  1  0  0  0  0
  5  6  1  0  0  0  0
  5 13  1  0  0  0  0
  6 10  1  0  0  0  0
  7  8  1  0  0  0  0
  8 11  1  0  0  0  0
  3 14  1  0  0  0  0
  3 15  1  0  0  0  0
  4 16  1  0  0  0  0
  4 17  1  0  0  0  0
  5 18  1  0  0  0  0
  5 19  1  0  0  0  0
  6 20  1  0  0  0  0
  7 21  1  0  0  0  0
  7 22  1  0  0  0  0
  8 23  1  0  0  0  0
  8 24  1  0  0  0  0
 10 25  1  0  0  0  0
 11 26  1  0  0  0  0
M  END
> <FRED Chemgauss4 score>
-4.652219

$$$$
C39113939	P59254499
  -OEChem-05122015083D

 22 22  0     1  0  0  0  0  0999 V2000
   54.0963  156.5933   -3.4995 C   0  0  0  0  0  0  0  0  0  0  0  0
   56.1846  156.2731   -5.4680 C   0  0  0  0  0  0  0  0  0  0  0  0
   53.8229  155.9189   -4.8365 C   0  0  1  0  0  0  0  0  0  0  0  0
   55.9418  157.6123   -4.7867 C   0  0  1  0  0  0  0  0  0  0  0  0
   55.1203  154.1061   -6.0202 C   0  0  0  0  0  0  0  0  0  0  0  0
   55.6783  158.0961   -2.3264 C   0  0  0  0  0  0  0  0  0  0  0  0
   55.0894  155.4054   -5.3612 N   0  0  0  0  0  0  0  0  0  0  0  0
   55.2733  157.3515   -3.5108 N   0  0  0  0  0  0  0  0  0  0  0  0
   53.3056  156.5244   -2.5605 O   0  0  0  0  0  0  0  0  0  0  0  0
   57.2086  156.0468   -6.1101 O   0  0  0  0  0  0  0  0  0  0  0  0
   52.8610  154.8969   -4.6578 O   0  0  0  0  0  0  0  0  0  0  0  0
   57.1756  158.2799   -4.6046 O   0  0  0  0  0  0  0  0  0  0  0  0
   53.4285  156.6607   -5.5461 H   0  0  0  0  0  0  0  0  0  0  0  0
   55.2840  158.2312   -5.4069 H   0  0  0  0  0  0  0  0  0  0  0  0
   55.5410  153.3538   -5.3480 H   0  0  0  0  0  0  0  0  0  0  0  0
   55.7353  154.1547   -6.9229 H   0  0  0  0  0  0  0  0  0  0  0  0
   54.1088  153.8007   -6.3012 H   0  0  0  0  0  0  0  0  0  0  0  0
   56.3111  157.4730   -1.6891 H   0  0  0  0  0  0  0  0  0  0  0  0
   54.7988  158.4048   -1.7549 H   0  0  0  0  0  0  0  0  0  0  0  0
   56.2398  158.9888   -2.6148 H   0  0  0  0  0  0  0  0  0  0  0  0
   52.0547  155.3192   -4.3147 H   0  0  0  0  0  0  0  0  0  0  0  0
   57.5642  158.4100   -5.4869 H   0  0  0  0  0  0  0  0  0  0  0  0
  1  3  1  0  0  0  0
  1  8  1  0  0  0  0
  1  9  2  0  0  0  0
  2  4  1  0  0  0  0
  2  7  1  0  0  0  0
  2 10  2  0  0  0  0
  3  7  1  0  0  0  0
  3 11  1  0  0  0  0
  4  8  1  0  0  0  0
  4 12  1  0  0  0  0
  5  7  1  0  0  0  0
  6  8  1  0  0  0  0
  3 13  1  0  0  0  0
  4 14  1  0  0  0  0
  5 15  1  0  0  0  0
  5 16  1  0  0  0  0
  5 17  1  0  0  0  0
  6 18  1  0  0  0  0
  6 19  1  0  0  0  0
  6 20  1  0  0  0  0
 11 21  1  0  0  0  0
 12 22  1  0  0  0  0
M  END
> <FRED Chemgauss4 score>
-4.648623

$$$$
C37751076	P56135865
  -OEChem-05122015083D

 27 27  0     1  0  0  0  0  0999 V2000
   54.8118  157.2342   -3.1296 C   0  0  0  0  0  0  0  0  0  0  0  0
   54.6356  158.7352   -3.1826 C   0  0  0  0  0  0  0  0  0  0  0  0
   55.5976  157.9567   -5.2397 C   0  0  0  0  0  0  0  0  0  0  0  0
   54.7208  159.0674   -4.6749 C   0  0  1  0  0  0  0  0  0  0  0  0
   54.6568  152.9613   -7.7922 C   0  0  0  0  0  0  0  0  0  0  0  0
   55.7844  155.5024   -4.6838 C   0  0  0  0  0  0  0  0  0  0  0  0
   55.0823  154.9701   -5.9183 C   0  0  0  0  0  0  0  0  0  0  0  0
   55.3581  156.8439   -4.3491 N   0  0  0  0  0  0  0  0  0  0  0  0
   53.3874  159.0507   -5.2793 N   0  0  0  0  0  0  0  0  0  0  0  0
   54.5520  156.5383   -2.1593 O   0  0  0  0  0  0  0  0  0  0  0  0
   57.0194  153.4427   -6.7829 O   0  0  0  0  0  0  0  0  0  0  0  0
   55.2425  152.4355   -5.2997 O   0  0  0  0  0  0  0  0  0  0  0  0
   55.6330  153.3512   -6.3581 S   0  0  0  0  0  0  0  0  0  0  0  0
   53.6542  158.9807   -2.7509 H   0  0  0  0  0  0  0  0  0  0  0  0
   55.4208  159.2428   -2.6072 H   0  0  0  0  0  0  0  0  0  0  0  0
   55.3018  157.6489   -6.2528 H   0  0  0  0  0  0  0  0  0  0  0  0
   56.6611  158.2301   -5.2402 H   0  0  0  0  0  0  0  0  0  0  0  0
   55.1741  160.0242   -4.8182 H   0  0  0  0  0  0  0  0  0  0  0  0
   54.9343  151.9640   -8.1370 H   0  0  0  0  0  0  0  0  0  0  0  0
   53.6033  152.9888   -7.5096 H   0  0  0  0  0  0  0  0  0  0  0  0
   54.8657  153.7044   -8.5633 H   0  0  0  0  0  0  0  0  0  0  0  0
   55.5977  154.8691   -3.8109 H   0  0  0  0  0  0  0  0  0  0  0  0
   56.8644  155.5453   -4.8542 H   0  0  0  0  0  0  0  0  0  0  0  0
   55.2922  155.6094   -6.7811 H   0  0  0  0  0  0  0  0  0  0  0  0
   53.9989  154.9126   -5.7767 H   0  0  0  0  0  0  0  0  0  0  0  0
   53.3105  158.8663   -6.2599 H   0  0  0  0  0  0  0  0  0  0  0  0
   52.6204  159.4192   -4.7526 H   0  0  0  0  0  0  0  0  0  0  0  0
  1  2  1  0  0  0  0
  1  8  1  0  0  0  0
  1 10  2  0  0  0  0
  2  4  1  0  0  0  0
  3  4  1  0  0  0  0
  3  8  1  0  0  0  0
  4  9  1  0  0  0  0
  5 13  1  0  0  0  0
  6  7  1  0  0  0  0
  6  8  1  0  0  0  0
  7 13  1  0  0  0  0
 11 13  2  0  0  0  0
 12 13  2  0  0  0  0
  2 14  1  0  0  0  0
  2 15  1  0  0  0  0
  3 16  1  0  0  0  0
  3 17  1  0  0  0  0
  4 18  1  0  0  0  0
  5 19  1  0  0  0  0
  5 20  1  0  0  0  0
  5 21  1  0  0  0  0
  6 22  1  0  0  0  0
  6 23  1  0  0  0  0
  7 24  1  0  0  0  0
  7 25  1  0  0  0  0
  9 26  1  0  0  0  0
  9 27  1  0  0  0  0
M  END
> <FRED Chemgauss4 score>
-4.645298

$$$$
C20286182	P156342109
  -OEChem-05122015083D

 20 20  0     1  0  0  0  0  0999 V2000
   53.5095  156.0739   -3.4108 C   0  0  0  0  0  0  0  0  0  0  0  0
   53.8961  155.5006   -4.6390 C   0  0  0  0  0  0  0  0  0  0  0  0
   53.3594  155.6890   -5.8610 C   0  0  0  0  0  0  0  0  0  0  0  0
   55.0215  154.5464   -4.8370 C   0  0  0  0  0  0  0  0  0  0  0  0
   55.1104  154.1371   -6.2951 C   0  0  2  0  0  0  0  0  0  0  0  0
   57.5847  153.7816   -6.3012 C   0  0  0  0  0  0  0  0  0  0  0  0
   56.4349  154.5182   -6.9192 C   0  0  0  0  0  0  0  0  0  0  0  0
   53.1915  156.5456   -2.3997 N   0  0  0  0  0  0  0  0  0  0  0  0
   54.0322  154.9446   -6.8149 N   0  0  0  0  0  0  0  0  0  0  0  0
   52.2982  156.5002   -6.1398 N   0  0  0  0  0  0  0  0  0  0  0  0
   55.7606  154.1600   -3.9452 O   0  0  0  0  0  0  0  0  0  0  0  0
   54.8834  153.0721   -6.3988 H   0  0  0  0  0  0  0  0  0  0  0  0
   57.6244  153.9805   -5.2238 H   0  0  0  0  0  0  0  0  0  0  0  0
   58.5333  154.1066   -6.7416 H   0  0  0  0  0  0  0  0  0  0  0  0
   57.4726  152.7016   -6.4435 H   0  0  0  0  0  0  0  0  0  0  0  0
   56.4128  154.3062   -7.9962 H   0  0  0  0  0  0  0  0  0  0  0  0
   56.6014  155.5976   -6.8075 H   0  0  0  0  0  0  0  0  0  0  0  0
   53.7453  154.9589   -7.7848 H   0  0  0  0  0  0  0  0  0  0  0  0
   51.8723  157.0024   -5.3917 H   0  0  0  0  0  0  0  0  0  0  0  0
   51.9821  156.5652   -7.0827 H   0  0  0  0  0  0  0  0  0  0  0  0
  1  2  1  0  0  0  0
  1  8  3  0  0  0  0
  2  3  2  0  0  0  0
  2  4  1  0  0  0  0
  3  9  1  0  0  0  0
  3 10  1  0  0  0  0
  4  5  1  0  0  0  0
  4 11  2  0  0  0  0
  5  7  1  0  0  0  0
  5  9  1  0  0  0  0
  6  7  1  0  0  0  0
  5 12  1  0  0  0  0
  6 13  1  0  0  0  0
  6 14  1  0  0  0  0
  6 15  1  0  0  0  0
  7 16  1  0  0  0  0
  7 17  1  0  0  0  0
  9 18  1  0  0  0  0
 10 19  1  0  0  0  0
 10 20  1  0  0  0  0
M  END
> <FRED Chemgauss4 score>
-4.642703

$$$$
C51356228	P76951199
  -OEChem-05122015083D

 27 27  0     1  0  0  0  0  0999 V2000
   53.4145  155.1481   -4.4102 C   0  0  0  0  0  0  0  0  0  0  0  0
   53.9311  155.9132   -2.2602 C   0  0  0  0  0  0  0  0  0  0  0  0
   54.5289  156.1770   -4.5462 C   0  0  1  0  0  0  0  0  0  0  0  0
   54.3940  156.9598   -3.2552 C   0  0  1  0  0  0  0  0  0  0  0  0
   57.4168  154.2749   -6.0625 C   0  0  0  0  0  0  0  0  0  0  0  0
   57.6900  153.6920   -7.4475 C   0  0  0  0  0  0  0  0  0  0  0  0
   56.0655  154.9763   -5.9445 C   0  0  0  0  0  0  0  0  0  0  0  0
   56.7303  152.6905   -7.8238 N   0  0  0  0  0  0  0  0  0  0  0  0
   55.8229  155.5002   -4.6094 N   0  0  0  0  0  0  0  0  0  0  0  0
   53.1919  154.9335   -3.0080 O   0  0  0  0  0  0  0  0  0  0  0  0
   53.3954  157.9678   -3.4004 O   0  0  0  0  0  0  0  0  0  0  0  0
   52.4797  155.5349   -4.8319 H   0  0  0  0  0  0  0  0  0  0  0  0
   53.6280  154.1914   -4.8981 H   0  0  0  0  0  0  0  0  0  0  0  0
   54.7785  155.3976   -1.7969 H   0  0  0  0  0  0  0  0  0  0  0  0
   53.2843  156.3165   -1.4756 H   0  0  0  0  0  0  0  0  0  0  0  0
   54.3985  156.7810   -5.4419 H   0  0  0  0  0  0  0  0  0  0  0  0
   55.3217  157.4621   -2.9291 H   0  0  0  0  0  0  0  0  0  0  0  0
   58.2164  154.9850   -5.8181 H   0  0  0  0  0  0  0  0  0  0  0  0
   57.4602  153.4719   -5.3165 H   0  0  0  0  0  0  0  0  0  0  0  0
   57.6826  154.4689   -8.2181 H   0  0  0  0  0  0  0  0  0  0  0  0
   58.6732  153.2110   -7.4619 H   0  0  0  0  0  0  0  0  0  0  0  0
   55.2585  154.2687   -6.1593 H   0  0  0  0  0  0  0  0  0  0  0  0
   55.9824  155.8083   -6.6505 H   0  0  0  0  0  0  0  0  0  0  0  0
   56.9998  151.9713   -8.4766 H   0  0  0  0  0  0  0  0  0  0  0  0
   55.7580  152.8312   -7.5978 H   0  0  0  0  0  0  0  0  0  0  0  0
   56.5548  156.1648   -4.3675 H   0  0  0  0  0  0  0  0  0  0  0  0
   53.7405  158.6066   -4.0429 H   0  0  0  0  0  0  0  0  0  0  0  0
  1  3  1  0  0  0  0
  1 10  1  0  0  0  0
  2  4  1  0  0  0  0
  2 10  1  0  0  0  0
  3  4  1  0  0  0  0
  3  9  1  0  0  0  0
  4 11  1  0  0  0  0
  5  6  1  0  0  0  0
  5  7  1  0  0  0  0
  6  8  1  0  0  0  0
  7  9  1  0  0  0  0
  1 12  1  0  0  0  0
  1 13  1  0  0  0  0
  2 14  1  0  0  0  0
  2 15  1  0  0  0  0
  3 16  1  0  0  0  0
  4 17  1  0  0  0  0
  5 18  1  0  0  0  0
  5 19  1  0  0  0  0
  6 20  1  0  0  0  0
  6 21  1  0  0  0  0
  7 22  1  0  0  0  0
  7 23  1  0  0  0  0
  8 24  1  0  0  0  0
  8 25  1  0  0  0  0
  9 26  1  0  0  0  0
 11 27  1  0  0  0  0
M  END
> <FRED Chemgauss4 score>
-4.639331

$$$$
C87615186	P137068035
  -OEChem-05122015083D

 17 17  0     0  0  0  0  0  0999 V2000
   55.5373  156.7127   -4.6665 C   0  0  0  0  0  0  0  0  0  0  0  0
   56.0721  157.3853   -3.5863 C   0  0  0  0  0  0  0  0  0  0  0  0
   54.2239  156.2860   -4.5781 C   0  0  0  0  0  0  0  0  0  0  0  0
   53.5324  156.5600   -3.4152 C   0  0  0  0  0  0  0  0  0  0  0  0
   53.6275  155.5736   -5.6996 C   0  0  0  0  0  0  0  0  0  0  0  0
   55.3720  157.6397   -2.4605 N   0  0  0  0  0  0  0  0  0  0  0  0
   54.0813  157.2201   -2.3736 N   0  0  0  0  0  0  0  0  0  0  0  0
   52.3769  155.1817   -5.5836 N   0  0  0  0  0  0  0  0  0  0  0  0
   52.1882  156.1329   -3.3032 N   0  0  0  0  0  0  0  0  0  0  0  0
   54.2904  155.2796   -6.8846 N   0  0  0  0  0  0  0  0  0  0  0  0
   56.1374  156.5303   -5.5517 H   0  0  0  0  0  0  0  0  0  0  0  0
   57.0944  157.7450   -3.5937 H   0  0  0  0  0  0  0  0  0  0  0  0
   52.0131  155.4623   -4.6664 H   0  0  0  0  0  0  0  0  0  0  0  0
   51.7564  155.6858   -4.0837 H   0  0  0  0  0  0  0  0  0  0  0  0
   51.6723  156.3710   -2.4829 H   0  0  0  0  0  0  0  0  0  0  0  0
   55.2570  155.5506   -7.0319 H   0  0  0  0  0  0  0  0  0  0  0  0
   53.8445  154.7764   -7.6428 H   0  0  0  0  0  0  0  0  0  0  0  0
  1  2  2  0  0  0  0
  1  3  1  0  0  0  0
  2  6  1  0  0  0  0
  3  4  2  0  0  0  0
  3  5  1  0  0  0  0
  4  7  1  0  0  0  0
  4  9  1  0  0  0  0
  5  8  2  0  0  0  0
  5 10  1  0  0  0  0
  6  7  2  0  0  0  0
  1 11  1  0  0  0  0
  2 12  1  0  0  0  0
  8 13  1  0  0  0  0
  9 14  1  0  0  0  0
  9 15  1  0  0  0  0
 10 16  1  0  0  0  0
 10 17  1  0  0  0  0
M  END
> <FRED Chemgauss4 score>
-4.636692

$$$$
C82632200	P129134191
  -OEChem-05122015083D

 22 22  0     0  0  0  0  0  0999 V2000
   56.5131  158.2269   -3.4518 C   0  0  0  0  0  0  0  0  0  0  0  0
   54.5941  156.9848   -3.1147 C   0  0  0  0  0  0  0  0  0  0  0  0
   55.2550  158.2444   -2.6400 C   0  0  0  0  0  0  0  0  0  0  0  0
   57.5371  159.3008   -3.3394 C   0  0  0  0  0  0  0  0  0  0  0  0
   55.2941  155.2379   -4.7998 C   0  0  0  0  0  0  0  0  0  0  0  0
   54.6035  155.5473   -6.1155 C   0  0  0  0  0  0  0  0  0  0  0  0
   56.6136  157.2045   -4.2425 N   0  0  0  0  0  0  0  0  0  0  0  0
   55.4799  156.4568   -4.0528 N   0  0  0  0  0  0  0  0  0  0  0  0
   57.2100  160.3218   -4.2967 N   0  0  0  0  0  0  0  0  0  0  0  0
   53.5182  156.5535   -2.7370 O   0  0  0  0  0  0  0  0  0  0  0  0
   53.3230  156.1085   -5.8561 O   0  0  0  0  0  0  0  0  0  0  0  0
   55.4830  158.1885   -1.5741 H   0  0  0  0  0  0  0  0  0  0  0  0
   54.6502  159.1193   -2.8845 H   0  0  0  0  0  0  0  0  0  0  0  0
   58.5225  158.8803   -3.5517 H   0  0  0  0  0  0  0  0  0  0  0  0
   57.5201  159.7081   -2.3260 H   0  0  0  0  0  0  0  0  0  0  0  0
   54.6986  154.5501   -4.1912 H   0  0  0  0  0  0  0  0  0  0  0  0
   56.2783  154.7955   -4.9811 H   0  0  0  0  0  0  0  0  0  0  0  0
   54.4589  154.6262   -6.6885 H   0  0  0  0  0  0  0  0  0  0  0  0
   55.1828  156.2550   -6.7175 H   0  0  0  0  0  0  0  0  0  0  0  0
   56.8204  160.0548   -5.1872 H   0  0  0  0  0  0  0  0  0  0  0  0
   57.5561  161.2580   -4.1553 H   0  0  0  0  0  0  0  0  0  0  0  0
   52.9177  156.2905   -6.7192 H   0  0  0  0  0  0  0  0  0  0  0  0
  1  3  1  0  0  0  0
  1  4  1  0  0  0  0
  1  7  2  0  0  0  0
  2  3  1  0  0  0  0
  2  8  1  0  0  0  0
  2 10  2  0  0  0  0
  4  9  1  0  0  0  0
  5  6  1  0  0  0  0
  5  8  1  0  0  0  0
  6 11  1  0  0  0  0
  7  8  1  0  0  0  0
  3 12  1  0  0  0  0
  3 13  1  0  0  0  0
  4 14  1  0  0  0  0
  4 15  1  0  0  0  0
  5 16  1  0  0  0  0
  5 17  1  0  0  0  0
  6 18  1  0  0  0  0
  6 19  1  0  0  0  0
  9 20  1  0  0  0  0
  9 21  1  0  0  0  0
 11 22  1  0  0  0  0
M  END
> <FRED Chemgauss4 score>
-4.636234

$$$$
C01084855	P07324367
  -OEChem-05122015083D

 30 31  0     0  0  0  0  0  0999 V2000
   55.1012  157.3067   -6.4083 C   0  0  0  0  0  0  0  0  0  0  0  0
   56.1215  156.7927   -4.2795 C   0  0  0  0  0  0  0  0  0  0  0  0
   53.8523  156.9588   -5.8938 C   0  0  0  0  0  0  0  0  0  0  0  0
   54.8726  156.4448   -3.7650 C   0  0  0  0  0  0  0  0  0  0  0  0
   56.2358  157.2236   -5.6012 C   0  0  0  0  0  0  0  0  0  0  0  0
   53.7380  156.5279   -4.5721 C   0  0  0  0  0  0  0  0  0  0  0  0
   58.3116  158.5298   -5.6264 C   0  0  0  0  0  0  0  0  0  0  0  0
   59.6344  158.8756   -6.1976 C   0  0  0  0  0  0  0  0  0  0  0  0
   59.4760  160.3836   -4.3661 C   0  0  0  0  0  0  0  0  0  0  0  0
   61.7232  162.8447   -6.4537 C   0  0  0  0  0  0  0  0  0  0  0  0
   57.5202  157.5815   -6.1305 C   0  0  0  0  0  0  0  0  0  0  0  0
   61.3420  161.5905   -6.7210 C   0  0  0  0  0  0  0  0  0  0  0  0
   61.5214  160.4465   -5.7778 C   0  0  0  0  0  0  0  0  0  0  0  0
   60.2077  159.9017   -5.4452 N   0  0  0  0  0  0  0  0  0  0  0  0
   52.4752  156.1760   -4.0517 N   0  0  0  0  0  0  0  0  0  0  0  0
   60.1060  158.3186   -7.1801 O   0  0  0  0  0  0  0  0  0  0  0  0
   59.8852  161.5952   -3.2903 S   0  0  0  0  0  0  0  0  0  0  0  0
   57.9541  159.5022   -4.2597 S   0  0  0  0  0  0  0  0  0  0  0  0
   55.1745  157.6404   -7.4407 H   0  0  0  0  0  0  0  0  0  0  0  0
   56.9969  156.7233   -3.6382 H   0  0  0  0  0  0  0  0  0  0  0  0
   52.9746  157.0267   -6.5315 H   0  0  0  0  0  0  0  0  0  0  0  0
   54.7953  156.1107   -2.7334 H   0  0  0  0  0  0  0  0  0  0  0  0
   61.5592  163.6344   -7.1787 H   0  0  0  0  0  0  0  0  0  0  0  0
   62.2021  163.1049   -5.5162 H   0  0  0  0  0  0  0  0  0  0  0  0
   57.8880  157.0207   -6.9901 H   0  0  0  0  0  0  0  0  0  0  0  0
   60.8605  161.3857   -7.6741 H   0  0  0  0  0  0  0  0  0  0  0  0
   62.0024  160.7959   -4.8591 H   0  0  0  0  0  0  0  0  0  0  0  0
   62.1366  159.6476   -6.2040 H   0  0  0  0  0  0  0  0  0  0  0  0
   51.6635  156.2847   -4.6255 H   0  0  0  0  0  0  0  0  0  0  0  0
   52.4001  155.9139   -3.0896 H   0  0  0  0  0  0  0  0  0  0  0  0
  1  3  2  0  0  0  0
  1  5  1  0  0  0  0
  2  4  1  0  0  0  0
  2  5  2  0  0  0  0
  3  6  1  0  0  0  0
  4  6  2  0  0  0  0
  5 11  1  0  0  0  0
  6 15  1  0  0  0  0
  7  8  1  0  0  0  0
  7 11  2  0  0  0  0
  7 18  1  0  0  0  0
  8 14  1  0  0  0  0
  8 16  2  0  0  0  0
  9 14  1  0  0  0  0
  9 17  2  0  0  0  0
  9 18  1  0  0  0  0
 10 12  2  0  0  0  0
 12 13  1  0  0  0  0
 13 14  1  0  0  0  0
  1 19  1  0  0  0  0
  2 20  1  0  0  0  0
  3 21  1  0  0  0  0
  4 22  1  0  0  0  0
 10 23  1  0  0  0  0
 10 24  1  0  0  0  0
 11 25  1  0  0  0  0
 12 26  1  0  0  0  0
 13 27  1  0  0  0  0
 13 28  1  0  0  0  0
 15 29  1  0  0  0  0
 15 30  1  0  0  0  0
M  END
> <FRED Chemgauss4 score>
-4.635872

$$$$
C35679899	P52962559
  -OEChem-05122015083D

 27 28  0     1  0  0  0  0  0999 V2000
   55.0497  153.3090   -6.0458 C   0  0  0  0  0  0  0  0  0  0  0  0
   57.2704  154.2074   -6.2598 C   0  0  0  0  0  0  0  0  0  0  0  0
   55.2499  152.6691   -7.2583 C   0  0  0  0  0  0  0  0  0  0  0  0
   57.3713  153.5271   -7.4627 C   0  0  0  0  0  0  0  0  0  0  0  0
   56.0841  154.0909   -5.5439 C   0  0  0  0  0  0  0  0  0  0  0  0
   53.9004  156.1950   -3.6398 C   0  0  0  0  0  0  0  0  0  0  0  0
   53.4190  157.5838   -3.9953 C   0  0  0  0  0  0  0  0  0  0  0  0
   55.4583  157.1056   -5.1681 C   0  0  0  0  0  0  0  0  0  0  0  0
   54.1772  157.9226   -5.2817 C   0  0  1  0  0  0  0  0  0  0  0  0
   55.9206  154.8073   -4.2346 C   0  0  0  0  0  0  0  0  0  0  0  0
   56.3881  152.7583   -7.9823 N   0  0  0  0  0  0  0  0  0  0  0  0
   55.0724  155.9730   -4.3575 N   0  0  0  0  0  0  0  0  0  0  0  0
   53.3965  157.5258   -6.4549 N   0  0  0  0  0  0  0  0  0  0  0  0
   53.3558  155.4565   -2.8327 O   0  0  0  0  0  0  0  0  0  0  0  0
   54.1117  153.1985   -5.5121 H   0  0  0  0  0  0  0  0  0  0  0  0
   58.0952  154.8095   -5.8945 H   0  0  0  0  0  0  0  0  0  0  0  0
   54.4735  152.0484   -7.6935 H   0  0  0  0  0  0  0  0  0  0  0  0
   58.2758  153.5854   -8.0589 H   0  0  0  0  0  0  0  0  0  0  0  0
   52.3303  157.5412   -4.1459 H   0  0  0  0  0  0  0  0  0  0  0  0
   53.6451  158.2952   -3.1903 H   0  0  0  0  0  0  0  0  0  0  0  0
   55.8117  156.7237   -6.1365 H   0  0  0  0  0  0  0  0  0  0  0  0
   56.2666  157.6701   -4.6847 H   0  0  0  0  0  0  0  0  0  0  0  0
   54.3918  158.9684   -5.3232 H   0  0  0  0  0  0  0  0  0  0  0  0
   55.4758  154.1441   -3.4846 H   0  0  0  0  0  0  0  0  0  0  0  0
   56.8887  155.1373   -3.8437 H   0  0  0  0  0  0  0  0  0  0  0  0
   53.8831  157.3245   -7.3059 H   0  0  0  0  0  0  0  0  0  0  0  0
   52.4053  157.6623   -6.4366 H   0  0  0  0  0  0  0  0  0  0  0  0
  1  3  1  0  0  0  0
  1  5  2  0  0  0  0
  2  4  2  0  0  0  0
  2  5  1  0  0  0  0
  3 11  2  0  0  0  0
  4 11  1  0  0  0  0
  5 10  1  0  0  0  0
  6  7  1  0  0  0  0
  6 12  1  0  0  0  0
  6 14  2  0  0  0  0
  7  9  1  0  0  0  0
  8  9  1  0  0  0  0
  8 12  1  0  0  0  0
  9 13  1  0  0  0  0
 10 12  1  0  0  0  0
  1 15  1  0  0  0  0
  2 16  1  0  0  0  0
  3 17  1  0  0  0  0
  4 18  1  0  0  0  0
  7 19  1  0  0  0  0
  7 20  1  0  0  0  0
  8 21  1  0  0  0  0
  8 22  1  0  0  0  0
  9 23  1  0  0  0  0
 10 24  1  0  0  0  0
 10 25  1  0  0  0  0
 13 26  1  0  0  0  0
 13 27  1  0  0  0  0
M  END
> <FRED Chemgauss4 score>
-4.635838

$$$$
C85169846	P133261998
  -OEChem-05122015083D

 34 34  0     1  0  0  0  0  0999 V2000
   53.9440  157.0869   -3.5078 C   0  0  0  0  0  0  0  0  0  0  0  0
   55.2236  158.4984   -2.5586 C   0  0  0  0  0  0  0  0  0  0  0  0
   54.9712  157.3065   -4.3950 C   0  0  0  0  0  0  0  0  0  0  0  0
   57.3518  153.9184   -6.9843 C   0  0  0  0  0  0  0  0  0  0  0  0
   57.9263  156.3686   -7.0967 C   0  0  0  0  0  0  0  0  0  0  0  0
   57.0081  158.7762   -4.2888 C   0  0  0  0  0  0  0  0  0  0  0  0
   55.3490  154.3819   -5.3079 C   0  0  0  0  0  0  0  0  0  0  0  0
   53.9769  156.3843   -6.5557 C   0  0  0  0  0  0  0  0  0  0  0  0
   55.2524  156.7368   -5.7746 C   0  0  2  0  0  0  0  0  0  0  0  0
   56.8128  155.3413   -6.9538 C   0  0  0  0  0  0  0  0  0  0  0  0
   54.1068  157.8320   -2.3668 N   0  0  0  0  0  0  0  0  0  0  0  0
   55.7827  158.2132   -3.7733 N   0  0  0  0  0  0  0  0  0  0  0  0
   53.1500  157.5389   -6.7917 N   0  0  0  0  0  0  0  0  0  0  0  0
   56.1224  155.5647   -5.6841 N   0  0  2  0  0  0  0  0  0  0  0  0
   53.0944  156.4306   -3.6303 H   0  0  0  0  0  0  0  0  0  0  0  0
   55.6713  159.1938   -1.8619 H   0  0  0  0  0  0  0  0  0  0  0  0
   58.0813  153.7605   -6.1834 H   0  0  0  0  0  0  0  0  0  0  0  0
   56.5479  153.1835   -6.8637 H   0  0  0  0  0  0  0  0  0  0  0  0
   57.8466  153.7108   -7.9395 H   0  0  0  0  0  0  0  0  0  0  0  0
   58.6663  156.2527   -6.2972 H   0  0  0  0  0  0  0  0  0  0  0  0
   57.5266  157.3866   -7.0437 H   0  0  0  0  0  0  0  0  0  0  0  0
   58.4530  156.2580   -8.0511 H   0  0  0  0  0  0  0  0  0  0  0  0
   57.8331  158.1295   -3.9785 H   0  0  0  0  0  0  0  0  0  0  0  0
   56.9537  158.8297   -5.3796 H   0  0  0  0  0  0  0  0  0  0  0  0
   57.1395  159.7847   -3.8869 H   0  0  0  0  0  0  0  0  0  0  0  0
   56.0046  153.5097   -5.2419 H   0  0  0  0  0  0  0  0  0  0  0  0
   54.5741  154.1841   -6.0535 H   0  0  0  0  0  0  0  0  0  0  0  0
   54.8701  154.5365   -4.3372 H   0  0  0  0  0  0  0  0  0  0  0  0
   54.2291  155.9780   -7.5419 H   0  0  0  0  0  0  0  0  0  0  0  0
   53.3607  155.6408   -6.0389 H   0  0  0  0  0  0  0  0  0  0  0  0
   55.8001  157.4918   -6.3538 H   0  0  0  0  0  0  0  0  0  0  0  0
   56.0861  155.4761   -7.7624 H   0  0  0  0  0  0  0  0  0  0  0  0
   52.1635  157.4112   -6.9476 H   0  0  0  0  0  0  0  0  0  0  0  0
   53.5887  158.4212   -6.9991 H   0  0  0  0  0  0  0  0  0  0  0  0
  1  3  2  0  0  0  0
  1 11  1  0  0  0  0
  2 11  2  0  0  0  0
  2 12  1  0  0  0  0
  3  9  1  0  0  0  0
  3 12  1  0  0  0  0
  4 10  1  0  0  0  0
  5 10  1  0  0  0  0
  6 12  1  0  0  0  0
  7 14  1  0  0  0  0
  8  9  1  0  0  0  0
  8 13  1  0  0  0  0
  9 14  1  0  0  0  0
 10 14  1  0  0  0  0
  1 15  1  0  0  0  0
  2 16  1  0  0  0  0
  4 17  1  0  0  0  0
  4 18  1  0  0  0  0
  4 19  1  0  0  0  0
  5 20  1  0  0  0  0
  5 21  1  0  0  0  0
  5 22  1  0  0  0  0
  6 23  1  0  0  0  0
  6 24  1  0  0  0  0
  6 25  1  0  0  0  0
  7 26  1  0  0  0  0
  7 27  1  0  0  0  0
  7 28  1  0  0  0  0
  8 29  1  0  0  0  0
  8 30  1  0  0  0  0
  9 31  1  0  0  0  0
 10 32  1  0  0  0  0
 13 33  1  0  0  0  0
 13 34  1  0  0  0  0
M  END
> <FRED Chemgauss4 score>
-4.629689

$$$$
C82575973	P129060922
  -OEChem-05122015083D

 23 23  0     1  0  0  0  0  0999 V2000
   56.1894  162.8039   -3.8732 C   0  0  0  0  0  0  0  0  0  0  0  0
   54.8558  162.4601   -3.8453 C   0  0  0  0  0  0  0  0  0  0  0  0
   56.6837  160.8060   -4.8700 C   0  0  0  0  0  0  0  0  0  0  0  0
   55.3502  160.4618   -4.8414 C   0  0  0  0  0  0  0  0  0  0  0  0
   55.3421  156.9002   -5.9336 C   0  0  0  0  0  0  0  0  0  0  0  0
   54.7524  157.6028   -3.5554 C   0  0  0  0  0  0  0  0  0  0  0  0
   55.4742  157.9698   -4.8539 C   0  0  2  0  0  0  0  0  0  0  0  0
   57.1273  161.9831   -4.3862 N   0  0  0  0  0  0  0  0  0  0  0  0
   54.4122  161.2828   -4.3288 N   0  0  0  0  0  0  0  0  0  0  0  0
   53.3388  157.3923   -3.7694 N   0  0  0  0  0  0  0  0  0  0  0  0
   54.9786  159.2341   -5.3585 N   0  0  0  0  0  0  0  0  0  0  0  0
   56.5450  163.7496   -3.4834 H   0  0  0  0  0  0  0  0  0  0  0  0
   54.1024  163.1205   -3.4340 H   0  0  0  0  0  0  0  0  0  0  0  0
   57.4462  160.1537   -5.2801 H   0  0  0  0  0  0  0  0  0  0  0  0
   54.2968  156.7254   -6.2107 H   0  0  0  0  0  0  0  0  0  0  0  0
   55.8709  157.2055   -6.8434 H   0  0  0  0  0  0  0  0  0  0  0  0
   55.7712  155.9510   -5.5965 H   0  0  0  0  0  0  0  0  0  0  0  0
   54.8787  158.4021   -2.8165 H   0  0  0  0  0  0  0  0  0  0  0  0
   55.1873  156.6925   -3.1284 H   0  0  0  0  0  0  0  0  0  0  0  0
   56.5397  158.0926   -4.6266 H   0  0  0  0  0  0  0  0  0  0  0  0
   52.8529  157.9881   -4.4154 H   0  0  0  0  0  0  0  0  0  0  0  0
   52.8348  156.8036   -3.1308 H   0  0  0  0  0  0  0  0  0  0  0  0
   54.3267  159.2113   -6.1318 H   0  0  0  0  0  0  0  0  0  0  0  0
  1  2  2  0  0  0  0
  1  8  1  0  0  0  0
  2  9  1  0  0  0  0
  3  4  1  0  0  0  0
  3  8  2  0  0  0  0
  4  9  2  0  0  0  0
  4 11  1  0  0  0  0
  5  7  1  0  0  0  0
  6  7  1  0  0  0  0
  6 10  1  0  0  0  0
  7 11  1  0  0  0  0
  1 12  1  0  0  0  0
  2 13  1  0  0  0  0
  3 14  1  0  0  0  0
  5 15  1  0  0  0  0
  5 16  1  0  0  0  0
  5 17  1  0  0  0  0
  6 18  1  0  0  0  0
  6 19  1  0  0  0  0
  7 20  1  0  0  0  0
 10 21  1  0  0  0  0
 10 22  1  0  0  0  0
 11 23  1  0  0  0  0
M  END
> <FRED Chemgauss4 score>
-4.629476

$$$$
C51004195	P76349427
  -OEChem-05122015083D

 18 18  0     0  0  0  0  0  0999 V2000
   57.1554  156.3841   -5.7978 C   0  0  0  0  0  0  0  0  0  0  0  0
   55.3683  157.9382   -2.3974 C   0  0  0  0  0  0  0  0  0  0  0  0
   56.2009  157.4919   -3.3965 C   0  0  0  0  0  0  0  0  0  0  0  0
   54.2084  156.5601   -3.5313 C   0  0  0  0  0  0  0  0  0  0  0  0
   55.8854  155.8730   -5.2755 C   0  0  0  0  0  0  0  0  0  0  0  0
   53.1262  155.7000   -4.0519 C   0  0  0  0  0  0  0  0  0  0  0  0
   58.1611  156.7873   -6.2129 N   0  0  0  0  0  0  0  0  0  0  0  0
   54.1296  157.3541   -2.4867 N   0  0  0  0  0  0  0  0  0  0  0  0
   55.4440  156.6094   -4.1145 N   0  0  0  0  0  0  0  0  0  0  0  0
   52.5192  156.2265   -5.2546 N   0  0  0  0  0  0  0  0  0  0  0  0
   55.5980  158.6504   -1.6183 H   0  0  0  0  0  0  0  0  0  0  0  0
   57.2277  157.7179   -3.6482 H   0  0  0  0  0  0  0  0  0  0  0  0
   55.0943  155.9366   -6.0311 H   0  0  0  0  0  0  0  0  0  0  0  0
   55.9731  154.8193   -4.9884 H   0  0  0  0  0  0  0  0  0  0  0  0
   53.4892  154.6858   -4.2951 H   0  0  0  0  0  0  0  0  0  0  0  0
   52.3116  155.5648   -3.3192 H   0  0  0  0  0  0  0  0  0  0  0  0
   51.5687  155.9812   -5.4631 H   0  0  0  0  0  0  0  0  0  0  0  0
   53.1091  156.6488   -5.9482 H   0  0  0  0  0  0  0  0  0  0  0  0
  1  5  1  0  0  0  0
  1  7  3  0  0  0  0
  2  3  2  0  0  0  0
  2  8  1  0  0  0  0
  3  9  1  0  0  0  0
  4  6  1  0  0  0  0
  4  8  2  0  0  0  0
  4  9  1  0  0  0  0
  5  9  1  0  0  0  0
  6 10  1  0  0  0  0
  2 11  1  0  0  0  0
  3 12  1  0  0  0  0
  5 13  1  0  0  0  0
  5 14  1  0  0  0  0
  6 15  1  0  0  0  0
  6 16  1  0  0  0  0
 10 17  1  0  0  0  0
 10 18  1  0  0  0  0
M  END
> <FRED Chemgauss4 score>
-4.625768

$$$$
C47822425	P71595812
  -OEChem-05122015083D

 37 36  0     0  0  0  0  0  0999 V2000
   52.4342  156.0374   -3.4364 C   0  0  0  0  0  0  0  0  0  0  0  0
   57.5031  161.0178   -4.3562 C   0  0  0  0  0  0  0  0  0  0  0  0
   56.8397  157.3313   -5.6774 C   0  0  0  0  0  0  0  0  0  0  0  0
   51.0452  156.5437   -3.2294 C   0  0  0  0  0  0  0  0  0  0  0  0
   57.1210  162.0426   -3.3403 C   0  0  0  0  0  0  0  0  0  0  0  0
   54.3415  155.2172   -6.3376 C   0  0  0  0  0  0  0  0  0  0  0  0
   53.8574  154.7074   -4.9817 C   0  0  0  0  0  0  0  0  0  0  0  0
   54.5266  156.7319   -6.3964 C   0  0  0  0  0  0  0  0  0  0  0  0
   59.3123  159.4426   -5.0104 C   0  0  0  0  0  0  0  0  0  0  0  0
   58.9500  158.0378   -4.5586 C   0  0  0  0  0  0  0  0  0  0  0  0
   52.6021  155.2876   -4.5903 N   0  0  0  0  0  0  0  0  0  0  0  0
   58.7507  160.4505   -4.1517 N   0  0  0  0  0  0  0  0  0  0  0  0
   55.4717  157.2105   -5.4251 N   0  0  0  0  0  0  0  0  0  0  0  0
   57.5228  157.8185   -4.5659 N   0  0  0  0  0  0  0  0  0  0  0  0
   53.3029  156.3030   -2.6140 O   0  0  0  0  0  0  0  0  0  0  0  0
   56.7271  160.7507   -5.2663 O   0  0  0  0  0  0  0  0  0  0  0  0
   57.3736  157.0439   -6.7480 O   0  0  0  0  0  0  0  0  0  0  0  0
   50.4223  155.8396   -2.6547 H   0  0  0  0  0  0  0  0  0  0  0  0
   51.0219  157.4859   -2.6587 H   0  0  0  0  0  0  0  0  0  0  0  0
   50.4763  156.7488   -4.1503 H   0  0  0  0  0  0  0  0  0  0  0  0
   57.4378  163.0580   -3.6275 H   0  0  0  0  0  0  0  0  0  0  0  0
   56.0303  162.1073   -3.1979 H   0  0  0  0  0  0  0  0  0  0  0  0
   57.5357  161.8840   -2.3319 H   0  0  0  0  0  0  0  0  0  0  0  0
   53.6198  154.9102   -7.1045 H   0  0  0  0  0  0  0  0  0  0  0  0
   55.2970  154.7384   -6.5846 H   0  0  0  0  0  0  0  0  0  0  0  0
   53.7379  153.6197   -4.9817 H   0  0  0  0  0  0  0  0  0  0  0  0
   54.5835  154.9677   -4.2051 H   0  0  0  0  0  0  0  0  0  0  0  0
   53.5756  157.2317   -6.1870 H   0  0  0  0  0  0  0  0  0  0  0  0
   54.8687  157.0562   -7.3840 H   0  0  0  0  0  0  0  0  0  0  0  0
   58.9535  159.6407   -6.0254 H   0  0  0  0  0  0  0  0  0  0  0  0
   60.3986  159.5746   -4.9928 H   0  0  0  0  0  0  0  0  0  0  0  0
   59.3922  157.2973   -5.2322 H   0  0  0  0  0  0  0  0  0  0  0  0
   59.3080  157.8407   -3.5430 H   0  0  0  0  0  0  0  0  0  0  0  0
   51.7930  155.1401   -5.1925 H   0  0  0  0  0  0  0  0  0  0  0  0
   59.2985  160.7637   -3.3518 H   0  0  0  0  0  0  0  0  0  0  0  0
   55.1254  157.4754   -4.5043 H   0  0  0  0  0  0  0  0  0  0  0  0
   56.9920  158.0728   -3.7387 H   0  0  0  0  0  0  0  0  0  0  0  0
  1  4  1  0  0  0  0
  1 11  1  0  0  0  0
  1 15  2  0  0  0  0
  2  5  1  0  0  0  0
  2 12  1  0  0  0  0
  2 16  2  0  0  0  0
  3 13  1  0  0  0  0
  3 14  1  0  0  0  0
  3 17  2  0  0  0  0
  6  7  1  0  0  0  0
  6  8  1  0  0  0  0
  7 11  1  0  0  0  0
  8 13  1  0  0  0  0
  9 10  1  0  0  0  0
  9 12  1  0  0  0  0
 10 14  1  0  0  0  0
  4 18  1  0  0  0  0
  4 19  1  0  0  0  0
  4 20  1  0  0  0  0
  5 21  1  0  0  0  0
  5 22  1  0  0  0  0
  5 23  1  0  0  0  0
  6 24  1  0  0  0  0
  6 25  1  0  0  0  0
  7 26  1  0  0  0  0
  7 27  1  0  0  0  0
  8 28  1  0  0  0  0
  8 29  1  0  0  0  0
  9 30  1  0  0  0  0
  9 31  1  0  0  0  0
 10 32  1  0  0  0  0
 10 33  1  0  0  0  0
 11 34  1  0  0  0  0
 12 35  1  0  0  0  0
 13 36  1  0  0  0  0
 14 37  1  0  0  0  0
M  END
> <FRED Chemgauss4 score>
-4.622380

$$$$
C97832325	P155280059
  -OEChem-05122015083D

 26 26  0     1  0  0  0  0  0999 V2000
   54.2874  156.3094   -2.7356 C   0  0  0  0  0  0  0  0  0  0  0  0
   54.8012  158.2955   -3.1209 C   0  0  0  0  0  0  0  0  0  0  0  0
   56.4340  160.2221   -2.9753 C   0  0  0  0  0  0  0  0  0  0  0  0
   56.4093  153.9652   -7.0579 C   0  0  0  0  0  0  0  0  0  0  0  0
   55.4306  155.0991   -4.6654 C   0  0  0  0  0  0  0  0  0  0  0  0
   54.6110  154.9890   -5.9440 C   0  0  0  0  0  0  0  0  0  0  0  0
   54.9710  159.7991   -3.0910 C   0  0  1  0  0  0  0  0  0  0  0  0
   54.1251  157.5771   -2.2548 N   0  0  0  0  0  0  0  0  0  0  0  0
   55.3376  157.4825   -4.0702 N   0  0  0  0  0  0  0  0  0  0  0  0
   55.0214  156.1982   -3.8448 N   0  0  0  0  0  0  0  0  0  0  0  0
   54.3637  160.4225   -4.2446 N   0  0  0  0  0  0  0  0  0  0  0  0
   55.0402  153.8589   -6.6923 O   0  0  0  0  0  0  0  0  0  0  0  0
   53.8464  155.4503   -2.2455 H   0  0  0  0  0  0  0  0  0  0  0  0
   57.0218  159.8445   -3.8190 H   0  0  0  0  0  0  0  0  0  0  0  0
   56.5181  161.3147   -2.9651 H   0  0  0  0  0  0  0  0  0  0  0  0
   56.8949  159.8554   -2.0513 H   0  0  0  0  0  0  0  0  0  0  0  0
   56.7040  153.0821   -7.6301 H   0  0  0  0  0  0  0  0  0  0  0  0
   57.0224  154.0503   -6.1572 H   0  0  0  0  0  0  0  0  0  0  0  0
   56.5444  154.8574   -7.6739 H   0  0  0  0  0  0  0  0  0  0  0  0
   56.4956  155.2319   -4.8884 H   0  0  0  0  0  0  0  0  0  0  0  0
   55.3242  154.1902   -4.0621 H   0  0  0  0  0  0  0  0  0  0  0  0
   53.5548  154.8450   -5.6956 H   0  0  0  0  0  0  0  0  0  0  0  0
   54.7088  155.8825   -6.5691 H   0  0  0  0  0  0  0  0  0  0  0  0
   54.4358  160.2042   -2.2234 H   0  0  0  0  0  0  0  0  0  0  0  0
   54.6726  161.3376   -4.5195 H   0  0  0  0  0  0  0  0  0  0  0  0
   53.5194  160.0284   -4.6197 H   0  0  0  0  0  0  0  0  0  0  0  0
  1  8  2  0  0  0  0
  1 10  1  0  0  0  0
  2  7  1  0  0  0  0
  2  8  1  0  0  0  0
  2  9  2  0  0  0  0
  3  7  1  0  0  0  0
  4 12  1  0  0  0  0
  5  6  1  0  0  0  0
  5 10  1  0  0  0  0
  6 12  1  0  0  0  0
  7 11  1  0  0  0  0
  9 10  1  0  0  0  0
  1 13  1  0  0  0  0
  3 14  1  0  0  0  0
  3 15  1  0  0  0  0
  3 16  1  0  0  0  0
  4 17  1  0  0  0  0
  4 18  1  0  0  0  0
  4 19  1  0  0  0  0
  5 20  1  0  0  0  0
  5 21  1  0  0  0  0
  6 22  1  0  0  0  0
  6 23  1  0  0  0  0
  7 24  1  0  0  0  0
 11 25  1  0  0  0  0
 11 26  1  0  0  0  0
M  END
> <FRED Chemgauss4 score>
-4.619509

$$$$
C97617862	P154764065
  -OEChem-05122015083D

 46 47  0     1  0  0  0  0  0999 V2000
   58.9231  158.2165   -4.9791 C   0  0  0  0  0  0  0  0  0  0  0  0
   58.7172  156.7173   -5.1871 C   0  0  0  0  0  0  0  0  0  0  0  0
   56.6010  154.1896   -8.1047 C   0  0  0  0  0  0  0  0  0  0  0  0
   58.1427  158.7232   -3.7718 C   0  0  0  0  0  0  0  0  0  0  0  0
   56.4832  156.9027   -4.0256 C   0  0  0  0  0  0  0  0  0  0  0  0
   56.6427  152.6707   -8.2299 C   0  0  0  0  0  0  0  0  0  0  0  0
   54.3496  153.6756   -7.3094 C   0  0  0  0  0  0  0  0  0  0  0  0
   57.2310  156.3338   -5.2382 C   0  0  1  0  0  0  0  0  0  0  0  0
   55.6010  154.4949   -6.9817 C   0  0  2  0  0  0  0  0  0  0  0  0
   56.2877  158.6610   -1.3195 C   0  0  0  0  0  0  0  0  0  0  0  0
   56.5765  156.7693   -6.5526 C   0  0  0  0  0  0  0  0  0  0  0  0
   55.2996  155.9807   -6.8638 C   0  0  2  0  0  0  0  0  0  0  0  0
   56.7001  158.3775   -3.9269 N   0  0  1  0  0  0  0  0  0  0  0  0
   53.6702  157.4645   -6.0833 N   0  0  0  0  0  0  0  0  0  0  0  0
   54.2887  156.1939   -5.8545 N   0  0  0  0  0  0  0  0  0  0  0  0
   54.9460  151.1332   -6.9275 O   0  0  0  0  0  0  0  0  0  0  0  0
   54.3402  151.9094   -9.2659 O   0  0  0  0  0  0  0  0  0  0  0  0
   54.3069  158.6434   -3.0234 O   0  0  0  0  0  0  0  0  0  0  0  0
   55.8734  160.6260   -2.9914 O   0  0  0  0  0  0  0  0  0  0  0  0
   54.9587  152.1324   -7.9756 S   0  0  0  0  0  0  0  0  0  0  0  0
   55.6305  159.2056   -2.8746 S   0  0  0  0  0  0  0  0  0  0  0  0
   59.9926  158.4174   -4.8360 H   0  0  0  0  0  0  0  0  0  0  0  0
   58.6103  158.7607   -5.8775 H   0  0  0  0  0  0  0  0  0  0  0  0
   59.2169  156.4090   -6.1219 H   0  0  0  0  0  0  0  0  0  0  0  0
   59.2202  156.1650   -4.3757 H   0  0  0  0  0  0  0  0  0  0  0  0
   57.5946  154.5958   -7.8904 H   0  0  0  0  0  0  0  0  0  0  0  0
   56.2562  154.6299   -9.0488 H   0  0  0  0  0  0  0  0  0  0  0  0
   58.5372  158.2466   -2.8674 H   0  0  0  0  0  0  0  0  0  0  0  0
   58.2531  159.8090   -3.6663 H   0  0  0  0  0  0  0  0  0  0  0  0
   55.4053  156.6956   -4.0933 H   0  0  0  0  0  0  0  0  0  0  0  0
   56.8607  156.4240   -3.1112 H   0  0  0  0  0  0  0  0  0  0  0  0
   56.9939  152.3397   -9.2093 H   0  0  0  0  0  0  0  0  0  0  0  0
   57.2592  152.2296   -7.4413 H   0  0  0  0  0  0  0  0  0  0  0  0
   53.7387  153.4763   -6.4259 H   0  0  0  0  0  0  0  0  0  0  0  0
   53.7407  154.1529   -8.0835 H   0  0  0  0  0  0  0  0  0  0  0  0
   57.1694  155.2264   -5.1848 H   0  0  0  0  0  0  0  0  0  0  0  0
   56.0212  154.1384   -6.0313 H   0  0  0  0  0  0  0  0  0  0  0  0
   55.6991  159.1132   -0.5196 H   0  0  0  0  0  0  0  0  0  0  0  0
   56.2173  157.5731   -1.2780 H   0  0  0  0  0  0  0  0  0  0  0  0
   57.3291  158.9799   -1.2553 H   0  0  0  0  0  0  0  0  0  0  0  0
   56.3412  157.8369   -6.4792 H   0  0  0  0  0  0  0  0  0  0  0  0
   57.3046  156.6527   -7.3634 H   0  0  0  0  0  0  0  0  0  0  0  0
   54.8731  156.3305   -7.8111 H   0  0  0  0  0  0  0  0  0  0  0  0
   53.8388  158.0709   -5.2810 H   0  0  0  0  0  0  0  0  0  0  0  0
   54.1211  157.9198   -6.8759 H   0  0  0  0  0  0  0  0  0  0  0  0
   53.5719  155.4659   -5.9138 H   0  0  0  0  0  0  0  0  0  0  0  0
  1  2  1  0  0  0  0
  1  4  1  0  0  0  0
  2  8  1  0  0  0  0
  3  6  1  0  0  0  0
  3  9  1  0  0  0  0
  4 13  1  0  0  0  0
  5  8  1  0  0  0  0
  5 13  1  0  0  0  0
  6 20  1  0  0  0  0
  7  9  1  0  0  0  0
  7 20  1  0  0  0  0
  8 11  1  0  0  0  0
  9 12  1  0  0  0  0
 10 21  1  0  0  0  0
 11 12  1  0  0  0  0
 12 15  1  0  0  0  0
 13 21  1  0  0  0  0
 14 15  1  0  0  0  0
 16 20  2  0  0  0  0
 17 20  2  0  0  0  0
 18 21  2  0  0  0  0
 19 21  2  0  0  0  0
  1 22  1  0  0  0  0
  1 23  1  0  0  0  0
  2 24  1  0  0  0  0
  2 25  1  0  0  0  0
  3 26  1  0  0  0  0
  3 27  1  0  0  0  0
  4 28  1  0  0  0  0
  4 29  1  0  0  0  0
  5 30  1  0  0  0  0
  5 31  1  0  0  0  0
  6 32  1  0  0  0  0
  6 33  1  0  0  0  0
  7 34  1  0  0  0  0
  7 35  1  0  0  0  0
  8 36  1  0  0  0  0
  9 37  1  0  0  0  0
 10 38  1  0  0  0  0
 10 39  1  0  0  0  0
 10 40  1  0  0  0  0
 11 41  1  0  0  0  0
 11 42  1  0  0  0  0
 12 43  1  0  0  0  0
 14 44  1  0  0  0  0
 14 45  1  0  0  0  0
 15 46  1  0  0  0  0
M  END
> <FRED Chemgauss4 score>
-4.617546

$$$$
C37418582	P55631903
  -OEChem-05122015083D

 18 18  0     0  0  0  0  0  0999 V2000
   56.7964  155.9979   -6.1107 C   0  0  0  0  0  0  0  0  0  0  0  0
   55.8901  155.0485   -5.7062 C   0  0  0  0  0  0  0  0  0  0  0  0
   56.0416  157.1812   -6.2195 C   0  0  0  0  0  0  0  0  0  0  0  0
   53.4354  155.1104   -5.2059 C   0  0  0  0  0  0  0  0  0  0  0  0
   53.0685  155.4361   -3.7643 C   0  0  0  0  0  0  0  0  0  0  0  0
   54.7548  157.0023   -5.9093 N   0  0  0  0  0  0  0  0  0  0  0  0
   54.6940  155.6955   -5.6018 N   0  0  0  0  0  0  0  0  0  0  0  0
   56.6138  158.3513   -6.6035 N   0  0  0  0  0  0  0  0  0  0  0  0
   52.9247  156.8423   -3.6126 O   0  0  0  0  0  0  0  0  0  0  0  0
   57.8500  155.8455   -6.2972 H   0  0  0  0  0  0  0  0  0  0  0  0
   55.9941  153.9942   -5.4900 H   0  0  0  0  0  0  0  0  0  0  0  0
   52.6692  155.4735   -5.9008 H   0  0  0  0  0  0  0  0  0  0  0  0
   53.5271  154.0268   -5.3430 H   0  0  0  0  0  0  0  0  0  0  0  0
   52.1098  154.9719   -3.5123 H   0  0  0  0  0  0  0  0  0  0  0  0
   53.8287  155.0823   -3.0604 H   0  0  0  0  0  0  0  0  0  0  0  0
   57.6219  158.4268   -6.7820 H   0  0  0  0  0  0  0  0  0  0  0  0
   56.0799  159.2274   -6.6394 H   0  0  0  0  0  0  0  0  0  0  0  0
   52.6921  157.0011   -2.6836 H   0  0  0  0  0  0  0  0  0  0  0  0
  1  2  2  0  0  0  0
  1  3  1  0  0  0  0
  2  7  1  0  0  0  0
  3  6  2  0  0  0  0
  3  8  1  0  0  0  0
  4  5  1  0  0  0  0
  4  7  1  0  0  0  0
  5  9  1  0  0  0  0
  6  7  1  0  0  0  0
  1 10  1  0  0  0  0
  2 11  1  0  0  0  0
  4 12  1  0  0  0  0
  4 13  1  0  0  0  0
  5 14  1  0  0  0  0
  5 15  1  0  0  0  0
  8 16  1  0  0  0  0
  8 17  1  0  0  0  0
  9 18  1  0  0  0  0
M  END
> <FRED Chemgauss4 score>
-4.616719

$$$$
C91671276	P143506488
  -OEChem-05122015083D

 37 38  0     1  0  0  0  0  0999 V2000
   54.5307  158.6730   -2.4970 C   0  0  0  0  0  0  0  0  0  0  0  0
   59.0778  153.7779   -7.4711 C   0  0  0  0  0  0  0  0  0  0  0  0
   58.7941  153.5650   -5.9798 C   0  0  0  0  0  0  0  0  0  0  0  0
   57.7072  153.8059   -8.1530 C   0  0  0  0  0  0  0  0  0  0  0  0
   55.4016  153.6816   -7.2843 C   0  0  0  0  0  0  0  0  0  0  0  0
   56.5667  153.4966   -4.6761 C   0  0  0  0  0  0  0  0  0  0  0  0
   57.3265  153.1861   -5.9512 C   0  0  1  0  0  0  0  0  0  0  0  0
   54.5931  153.9136   -5.9929 C   0  0  2  0  0  0  0  0  0  0  0  0
   54.2378  157.8263   -3.7054 C   0  0  0  0  0  0  0  0  0  0  0  0
   54.3948  155.3933   -5.6644 C   0  0  0  0  0  0  0  0  0  0  0  0
   56.7974  154.0161   -7.0354 N   0  0  1  0  0  0  0  0  0  0  0  0
   55.7725  158.4933   -1.9485 N   0  0  0  0  0  0  0  0  0  0  0  0
   53.2890  155.5511   -4.7785 N   0  0  0  0  0  0  0  0  0  0  0  0
   54.4964  155.5259   -2.4842 O   0  0  0  0  0  0  0  0  0  0  0  0
   52.2110  156.5796   -2.6362 O   0  0  0  0  0  0  0  0  0  0  0  0
   55.1740  153.2154   -4.8759 O   0  0  0  0  0  0  0  0  0  0  0  0
   53.4229  159.7498   -1.8606 S   0  0  0  0  0  0  0  0  0  0  0  0
   53.5031  156.2805   -3.2230 S   0  0  0  0  0  0  0  0  0  0  0  0
   59.6152  154.7204   -7.6193 H   0  0  0  0  0  0  0  0  0  0  0  0
   59.6947  152.9679   -7.8728 H   0  0  0  0  0  0  0  0  0  0  0  0
   59.4307  152.7814   -5.5634 H   0  0  0  0  0  0  0  0  0  0  0  0
   58.9969  154.4897   -5.4317 H   0  0  0  0  0  0  0  0  0  0  0  0
   57.6448  154.5577   -8.9278 H   0  0  0  0  0  0  0  0  0  0  0  0
   57.5096  152.8358   -8.5969 H   0  0  0  0  0  0  0  0  0  0  0  0
   55.3194  152.6346   -7.5764 H   0  0  0  0  0  0  0  0  0  0  0  0
   54.9738  154.2936   -8.0805 H   0  0  0  0  0  0  0  0  0  0  0  0
   56.9266  152.8961   -3.8451 H   0  0  0  0  0  0  0  0  0  0  0  0
   56.6577  154.5459   -4.4151 H   0  0  0  0  0  0  0  0  0  0  0  0
   57.1994  152.1550   -6.2069 H   0  0  0  0  0  0  0  0  0  0  0  0
   53.5462  153.4761   -6.1457 H   0  0  0  0  0  0  0  0  0  0  0  0
   53.5441  158.3187   -4.3925 H   0  0  0  0  0  0  0  0  0  0  0  0
   55.1602  157.5822   -4.2408 H   0  0  0  0  0  0  0  0  0  0  0  0
   54.1956  155.9335   -6.5821 H   0  0  0  0  0  0  0  0  0  0  0  0
   55.2893  155.7752   -5.1878 H   0  0  0  0  0  0  0  0  0  0  0  0
   56.4438  157.8347   -2.3302 H   0  0  0  0  0  0  0  0  0  0  0  0
   56.0642  159.0170   -1.1300 H   0  0  0  0  0  0  0  0  0  0  0  0
   52.3639  155.7678   -5.2227 H   0  0  0  0  0  0  0  0  0  0  0  0
  1  9  1  0  0  0  0
  1 12  1  0  0  0  0
  1 17  2  0  0  0  0
  2  3  1  0  0  0  0
  2  4  1  0  0  0  0
  3  7  1  0  0  0  0
  4 11  1  0  0  0  0
  5  8  1  0  0  0  0
  5 11  1  0  0  0  0
  6  7  1  0  0  0  0
  6 16  1  0  0  0  0
  7 11  1  0  0  0  0
  8 10  1  0  0  0  0
  8 16  1  0  0  0  0
  9 18  1  0  0  0  0
 10 13  1  0  0  0  0
 13 18  1  0  0  0  0
 14 18  2  0  0  0  0
 15 18  2  0  0  0  0
  2 19  1  0  0  0  0
  2 20  1  0  0  0  0
  3 21  1  0  0  0  0
  3 22  1  0  0  0  0
  4 23  1  0  0  0  0
  4 24  1  0  0  0  0
  5 25  1  0  0  0  0
  5 26  1  0  0  0  0
  6 27  1  0  0  0  0
  6 28  1  0  0  0  0
  7 29  1  0  0  0  0
  8 30  1  0  0  0  0
  9 31  1  0  0  0  0
  9 32  1  0  0  0  0
 10 33  1  0  0  0  0
 10 34  1  0  0  0  0
 12 35  1  0  0  0  0
 12 36  1  0  0  0  0
 13 37  1  0  0  0  0
M  END
> <FRED Chemgauss4 score>
-4.610305

$$$$
C70947907	P128809630
  -OEChem-05122015083D

 25 25  0     1  0  0  0  0  0999 V2000
   55.1783  156.4545   -3.8412 C   0  0  0  0  0  0  0  0  0  0  0  0
   55.6952  156.8598   -5.0133 C   0  0  0  0  0  0  0  0  0  0  0  0
   53.7260  156.6192   -3.6044 C   0  0  0  0  0  0  0  0  0  0  0  0
   53.6916  157.5709   -5.8235 C   0  0  0  0  0  0  0  0  0  0  0  0
   57.1620  156.7127   -5.2971 C   0  0  0  0  0  0  0  0  0  0  0  0
   51.1655  160.0331   -7.3653 C   0  0  0  0  0  0  0  0  0  0  0  0
   52.0809  159.3968   -6.3287 C   0  0  0  0  0  0  0  0  0  0  0  0
   52.8157  158.1817   -6.8788 C   0  0  2  0  0  0  0  0  0  0  0  0
   54.9632  157.4286   -6.0328 N   0  0  0  0  0  0  0  0  0  0  0  0
   53.0514  157.1932   -4.6626 N   0  0  0  0  0  0  0  0  0  0  0  0
   51.9251  157.1234   -7.2633 N   0  0  0  0  0  0  0  0  0  0  0  0
   53.2096  156.2647   -2.5501 O   0  0  0  0  0  0  0  0  0  0  0  0
   55.7771  156.0099   -3.0552 H   0  0  0  0  0  0  0  0  0  0  0  0
   57.3452  155.7471   -5.7620 H   0  0  0  0  0  0  0  0  0  0  0  0
   57.7197  156.7820   -4.3660 H   0  0  0  0  0  0  0  0  0  0  0  0
   57.4825  157.5077   -5.9662 H   0  0  0  0  0  0  0  0  0  0  0  0
   51.7311  160.3425   -8.2500 H   0  0  0  0  0  0  0  0  0  0  0  0
   50.4024  159.3161   -7.6849 H   0  0  0  0  0  0  0  0  0  0  0  0
   50.6528  160.9107   -6.9591 H   0  0  0  0  0  0  0  0  0  0  0  0
   51.4774  159.1019   -5.4612 H   0  0  0  0  0  0  0  0  0  0  0  0
   52.7946  160.1500   -5.9714 H   0  0  0  0  0  0  0  0  0  0  0  0
   53.4421  158.4345   -7.7373 H   0  0  0  0  0  0  0  0  0  0  0  0
   52.0497  157.3423   -4.5835 H   0  0  0  0  0  0  0  0  0  0  0  0
   52.2502  156.1689   -7.2327 H   0  0  0  0  0  0  0  0  0  0  0  0
   51.0691  157.3497   -7.7469 H   0  0  0  0  0  0  0  0  0  0  0  0
  1  2  2  0  0  0  0
  1  3  1  0  0  0  0
  2  5  1  0  0  0  0
  2  9  1  0  0  0  0
  3 10  1  0  0  0  0
  3 12  2  0  0  0  0
  4  8  1  0  0  0  0
  4  9  2  0  0  0  0
  4 10  1  0  0  0  0
  6  7  1  0  0  0  0
  7  8  1  0  0  0  0
  8 11  1  0  0  0  0
  1 13  1  0  0  0  0
  5 14  1  0  0  0  0
  5 15  1  0  0  0  0
  5 16  1  0  0  0  0
  6 17  1  0  0  0  0
  6 18  1  0  0  0  0
  6 19  1  0  0  0  0
  7 20  1  0  0  0  0
  7 21  1  0  0  0  0
  8 22  1  0  0  0  0
 10 23  1  0  0  0  0
 11 24  1  0  0  0  0
 11 25  1  0  0  0  0
M  END
> <FRED Chemgauss4 score>
-4.608665

$$$$
C97773409	P155153740
  -OEChem-05122015083D

 40 41  0     1  0  0  0  0  0999 V2000
   56.4811  157.7180   -3.9259 C   0  0  0  0  0  0  0  0  0  0  0  0
   55.2823  158.4653   -2.0126 C   0  0  0  0  0  0  0  0  0  0  0  0
   54.2708  156.9826   -3.4466 C   0  0  0  0  0  0  0  0  0  0  0  0
   56.4393  158.4960   -2.7743 C   0  0  0  0  0  0  0  0  0  0  0  0
   55.3803  156.9439   -4.2757 C   0  0  0  0  0  0  0  0  0  0  0  0
   56.2502  153.9187   -6.5209 C   0  0  0  0  0  0  0  0  0  0  0  0
   55.1523  153.0388   -6.5687 C   0  0  0  0  0  0  0  0  0  0  0  0
   57.0292  153.5541   -7.5917 C   0  0  0  0  0  0  0  0  0  0  0  0
   57.6007  159.3339   -2.3723 C   0  0  0  0  0  0  0  0  0  0  0  0
   54.0001  152.9808   -5.6519 C   0  0  0  0  0  0  0  0  0  0  0  0
   58.3123  154.0860   -8.0886 C   0  0  0  0  0  0  0  0  0  0  0  0
   56.7984  151.7890   -9.3656 C   0  0  0  0  0  0  0  0  0  0  0  0
   56.5158  155.0181   -5.5179 C   0  0  0  0  0  0  0  0  0  0  0  0
   55.3946  156.0995   -5.5001 C   0  0  2  0  0  0  0  0  0  0  0  0
   54.1931  157.7260   -2.3201 N   0  0  0  0  0  0  0  0  0  0  0  0
   55.2238  152.1800   -7.5892 N   0  0  0  0  0  0  0  0  0  0  0  0
   56.3759  152.5186   -8.1926 N   0  0  0  0  0  0  0  0  0  0  0  0
   54.2052  157.4002   -7.0369 N   0  0  0  0  0  0  0  0  0  0  0  0
   55.5040  156.9131   -6.7324 N   0  0  0  0  0  0  0  0  0  0  0  0
   57.3708  157.7151   -4.5511 H   0  0  0  0  0  0  0  0  0  0  0  0
   55.1920  159.0518   -1.1032 H   0  0  0  0  0  0  0  0  0  0  0  0
   53.3822  156.3993   -3.6682 H   0  0  0  0  0  0  0  0  0  0  0  0
   57.5236  160.3371   -2.8127 H   0  0  0  0  0  0  0  0  0  0  0  0
   57.6610  159.4407   -1.2800 H   0  0  0  0  0  0  0  0  0  0  0  0
   58.5510  158.8869   -2.6973 H   0  0  0  0  0  0  0  0  0  0  0  0
   53.1796  153.6312   -5.9994 H   0  0  0  0  0  0  0  0  0  0  0  0
   53.5960  151.9576   -5.5554 H   0  0  0  0  0  0  0  0  0  0  0  0
   54.2663  153.2986   -4.6282 H   0  0  0  0  0  0  0  0  0  0  0  0
   59.1659  153.5627   -7.6267 H   0  0  0  0  0  0  0  0  0  0  0  0
   58.4086  153.9814   -9.1832 H   0  0  0  0  0  0  0  0  0  0  0  0
   58.4252  155.1631   -7.8752 H   0  0  0  0  0  0  0  0  0  0  0  0
   57.4097  150.9449   -9.0358 H   0  0  0  0  0  0  0  0  0  0  0  0
   55.9189  151.4344   -9.9103 H   0  0  0  0  0  0  0  0  0  0  0  0
   57.3780  152.4519  -10.0142 H   0  0  0  0  0  0  0  0  0  0  0  0
   57.4881  155.4661   -5.7663 H   0  0  0  0  0  0  0  0  0  0  0  0
   56.6441  154.5820   -4.5183 H   0  0  0  0  0  0  0  0  0  0  0  0
   54.4294  155.5647   -5.5999 H   0  0  0  0  0  0  0  0  0  0  0  0
   53.5622  157.1665   -6.2808 H   0  0  0  0  0  0  0  0  0  0  0  0
   54.2505  158.4182   -7.0590 H   0  0  0  0  0  0  0  0  0  0  0  0
   55.8375  156.3156   -7.4774 H   0  0  0  0  0  0  0  0  0  0  0  0
  1  4  1  0  0  0  0
  1  5  2  0  0  0  0
  2  4  2  0  0  0  0
  2 15  1  0  0  0  0
  3  5  1  0  0  0  0
  3 15  2  0  0  0  0
  4  9  1  0  0  0  0
  5 14  1  0  0  0  0
  6  7  1  0  0  0  0
  6  8  2  0  0  0  0
  6 13  1  0  0  0  0
  7 10  1  0  0  0  0
  7 16  2  0  0  0  0
  8 11  1  0  0  0  0
  8 17  1  0  0  0  0
 12 17  1  0  0  0  0
 13 14  1  0  0  0  0
 14 19  1  0  0  0  0
 16 17  1  0  0  0  0
 18 19  1  0  0  0  0
  1 20  1  0  0  0  0
  2 21  1  0  0  0  0
  3 22  1  0  0  0  0
  9 23  1  0  0  0  0
  9 24  1  0  0  0  0
  9 25  1  0  0  0  0
 10 26  1  0  0  0  0
 10 27  1  0  0  0  0
 10 28  1  0  0  0  0
 11 29  1  0  0  0  0
 11 30  1  0  0  0  0
 11 31  1  0  0  0  0
 12 32  1  0  0  0  0
 12 33  1  0  0  0  0
 12 34  1  0  0  0  0
 13 35  1  0  0  0  0
 13 36  1  0  0  0  0
 14 37  1  0  0  0  0
 18 38  1  0  0  0  0
 18 39  1  0  0  0  0
 19 40  1  0  0  0  0
M  END
> <FRED Chemgauss4 score>
-4.603663

$$$$
C38643687	P58506679
  -OEChem-05122015083D

 26 26  0     1  0  0  0  0  0999 V2000
   54.7157  157.9431   -4.7661 C   0  0  0  0  0  0  0  0  0  0  0  0
   55.0192  156.8297   -3.7932 C   0  0  1  0  0  0  0  0  0  0  0  0
   56.3860  156.6531   -5.5962 C   0  0  0  0  0  0  0  0  0  0  0  0
   57.8773  156.6683   -5.2854 C   0  0  0  0  0  0  0  0  0  0  0  0
   56.1121  156.0478   -6.9672 C   0  0  0  0  0  0  0  0  0  0  0  0
   53.1568  155.1612   -4.0728 C   0  0  0  0  0  0  0  0  0  0  0  0
   53.7896  156.2140   -3.1607 C   0  0  1  0  0  0  0  0  0  0  0  0
   52.3544  155.8009   -5.0909 N   0  0  0  0  0  0  0  0  0  0  0  0
   55.8968  158.0042   -5.5671 O   0  0  0  0  0  0  0  0  0  0  0  0
   55.7013  155.8696   -4.6048 O   0  0  0  0  0  0  0  0  0  0  0  0
   54.1645  155.5789   -1.9363 O   0  0  0  0  0  0  0  0  0  0  0  0
   53.8717  157.7068   -5.4237 H   0  0  0  0  0  0  0  0  0  0  0  0
   54.5339  158.9048   -4.2791 H   0  0  0  0  0  0  0  0  0  0  0  0
   55.7190  157.1685   -3.0198 H   0  0  0  0  0  0  0  0  0  0  0  0
   58.0488  157.1049   -4.3014 H   0  0  0  0  0  0  0  0  0  0  0  0
   58.4079  157.2596   -6.0318 H   0  0  0  0  0  0  0  0  0  0  0  0
   58.2705  155.6516   -5.2946 H   0  0  0  0  0  0  0  0  0  0  0  0
   55.0406  156.0476   -7.1674 H   0  0  0  0  0  0  0  0  0  0  0  0
   56.4785  155.0217   -7.0017 H   0  0  0  0  0  0  0  0  0  0  0  0
   56.6160  156.6296   -7.7392 H   0  0  0  0  0  0  0  0  0  0  0  0
   53.9294  154.5599   -4.5639 H   0  0  0  0  0  0  0  0  0  0  0  0
   52.5146  154.4891   -3.4943 H   0  0  0  0  0  0  0  0  0  0  0  0
   53.0551  156.9950   -2.9182 H   0  0  0  0  0  0  0  0  0  0  0  0
   51.6038  155.2835   -5.5115 H   0  0  0  0  0  0  0  0  0  0  0  0
   52.6825  156.6582   -5.4976 H   0  0  0  0  0  0  0  0  0  0  0  0
   53.3532  155.2003   -1.5667 H   0  0  0  0  0  0  0  0  0  0  0  0
  1  2  1  0  0  0  0
  1  9  1  0  0  0  0
  2  7  1  0  0  0  0
  2 10  1  0  0  0  0
  3  4  1  0  0  0  0
  3  5  1  0  0  0  0
  3  9  1  0  0  0  0
  3 10  1  0  0  0  0
  6  7  1  0  0  0  0
  6  8  1  0  0  0  0
  7 11  1  0  0  0  0
  1 12  1  0  0  0  0
  1 13  1  0  0  0  0
  2 14  1  0  0  0  0
  4 15  1  0  0  0  0
  4 16  1  0  0  0  0
  4 17  1  0  0  0  0
  5 18  1  0  0  0  0
  5 19  1  0  0  0  0
  5 20  1  0  0  0  0
  6 21  1  0  0  0  0
  6 22  1  0  0  0  0
  7 23  1  0  0  0  0
  8 24  1  0  0  0  0
  8 25  1  0  0  0  0
 11 26  1  0  0  0  0
M  END
> <FRED Chemgauss4 score>
-4.595656

$$$$
C97587580	P154676895
  -OEChem-05122015083D

 46 47  0     1  0  0  0  0  0999 V2000
   56.0083  158.4633   -1.2686 C   0  0  0  0  0  0  0  0  0  0  0  0
   57.0787  159.1892   -1.7353 C   0  0  0  0  0  0  0  0  0  0  0  0
   55.8902  158.3505   -3.3908 C   0  0  0  0  0  0  0  0  0  0  0  0
   54.3668  155.1221   -5.0102 C   0  0  0  0  0  0  0  0  0  0  0  0
   54.2459  155.6620   -6.4348 C   0  0  0  0  0  0  0  0  0  0  0  0
   55.7473  155.5416   -4.5125 C   0  0  0  0  0  0  0  0  0  0  0  0
   55.5590  156.3819   -6.7293 C   0  0  0  0  0  0  0  0  0  0  0  0
   56.1222  156.7656   -5.3561 C   0  0  0  0  0  0  0  0  0  0  0  0
   59.4166  161.6663   -4.5208 C   0  0  0  0  0  0  0  0  0  0  0  0
   57.9199  157.7732   -6.5546 C   0  0  0  0  0  0  0  0  0  0  0  0
   58.2203  155.6412   -5.4882 C   0  0  0  0  0  0  0  0  0  0  0  0
   58.4699  161.0340   -3.5140 C   0  0  0  0  0  0  0  0  0  0  0  0
   57.9007  159.7169   -4.0368 C   0  0  0  0  0  0  0  0  0  0  0  0
   55.4777  158.0469   -4.8157 C   0  0  1  0  0  0  0  0  0  0  0  0
   55.2725  157.9436   -2.3041 N   0  0  0  0  0  0  0  0  0  0  0  0
   56.9900  159.1074   -3.0964 N   0  0  0  0  0  0  0  0  0  0  0  0
   53.5149  159.3039   -4.9968 N   0  0  0  0  0  0  0  0  0  0  0  0
   54.0398  157.9736   -4.9440 N   0  0  0  0  0  0  0  0  0  0  0  0
   57.5557  156.9397   -5.4119 N   0  0  0  0  0  0  0  0  0  0  0  0
   55.7300  158.2885   -0.2396 H   0  0  0  0  0  0  0  0  0  0  0  0
   57.8657  159.7357   -1.2346 H   0  0  0  0  0  0  0  0  0  0  0  0
   53.5761  155.5121   -4.3603 H   0  0  0  0  0  0  0  0  0  0  0  0
   54.2748  154.0294   -5.0155 H   0  0  0  0  0  0  0  0  0  0  0  0
   54.0950  154.8334   -7.1370 H   0  0  0  0  0  0  0  0  0  0  0  0
   53.3908  156.3381   -6.5412 H   0  0  0  0  0  0  0  0  0  0  0  0
   55.6803  155.8156   -3.4497 H   0  0  0  0  0  0  0  0  0  0  0  0
   56.4750  154.7231   -4.5868 H   0  0  0  0  0  0  0  0  0  0  0  0
   56.2428  155.7597   -7.3214 H   0  0  0  0  0  0  0  0  0  0  0  0
   55.3510  157.2835   -7.3235 H   0  0  0  0  0  0  0  0  0  0  0  0
   58.9107  161.8474   -5.4745 H   0  0  0  0  0  0  0  0  0  0  0  0
   60.2682  161.0047   -4.7081 H   0  0  0  0  0  0  0  0  0  0  0  0
   59.8031  162.6209   -4.1498 H   0  0  0  0  0  0  0  0  0  0  0  0
   59.0046  157.9032   -6.5943 H   0  0  0  0  0  0  0  0  0  0  0  0
   57.4505  158.7570   -6.4697 H   0  0  0  0  0  0  0  0  0  0  0  0
   57.5873  157.3053   -7.4850 H   0  0  0  0  0  0  0  0  0  0  0  0
   59.3042  155.7758   -5.5303 H   0  0  0  0  0  0  0  0  0  0  0  0
   57.8974  155.1035   -6.3838 H   0  0  0  0  0  0  0  0  0  0  0  0
   57.9743  155.0385   -4.6098 H   0  0  0  0  0  0  0  0  0  0  0  0
   59.0049  160.8654   -2.5716 H   0  0  0  0  0  0  0  0  0  0  0  0
   57.6559  161.7350   -3.2933 H   0  0  0  0  0  0  0  0  0  0  0  0
   58.7012  158.9957   -4.2403 H   0  0  0  0  0  0  0  0  0  0  0  0
   57.3565  159.8689   -4.9765 H   0  0  0  0  0  0  0  0  0  0  0  0
   55.7867  158.8775   -5.4629 H   0  0  0  0  0  0  0  0  0  0  0  0
   54.2851  159.9717   -4.9747 H   0  0  0  0  0  0  0  0  0  0  0  0
   53.0497  159.4453   -5.8926 H   0  0  0  0  0  0  0  0  0  0  0  0
   53.6385  157.4948   -4.1338 H   0  0  0  0  0  0  0  0  0  0  0  0
  1  2  2  0  0  0  0
  1 15  1  0  0  0  0
  2 16  1  0  0  0  0
  3 14  1  0  0  0  0
  3 15  2  0  0  0  0
  3 16  1  0  0  0  0
  4  5  1  0  0  0  0
  4  6  1  0  0  0  0
  5  7  1  0  0  0  0
  6  8  1  0  0  0  0
  7  8  1  0  0  0  0
  8 14  1  0  0  0  0
  8 19  1  0  0  0  0
  9 12  1  0  0  0  0
 10 19  1  0  0  0  0
 11 19  1  0  0  0  0
 12 13  1  0  0  0  0
 13 16  1  0  0  0  0
 14 18  1  0  0  0  0
 17 18  1  0  0  0  0
  1 20  1  0  0  0  0
  2 21  1  0  0  0  0
  4 22  1  0  0  0  0
  4 23  1  0  0  0  0
  5 24  1  0  0  0  0
  5 25  1  0  0  0  0
  6 26  1  0  0  0  0
  6 27  1  0  0  0  0
  7 28  1  0  0  0  0
  7 29  1  0  0  0  0
  9 30  1  0  0  0  0
  9 31  1  0  0  0  0
  9 32  1  0  0  0  0
 10 33  1  0  0  0  0
 10 34  1  0  0  0  0
 10 35  1  0  0  0  0
 11 36  1  0  0  0  0
 11 37  1  0  0  0  0
 11 38  1  0  0  0  0
 12 39  1  0  0  0  0
 12 40  1  0  0  0  0
 13 41  1  0  0  0  0
 13 42  1  0  0  0  0
 14 43  1  0  0  0  0
 17 44  1  0  0  0  0
 17 45  1  0  0  0  0
 18 46  1  0  0  0  0
M  END
> <FRED Chemgauss4 score>
-4.591806

$$$$
C50395723	P75386859
  -OEChem-05122015083D

 28 28  0     1  0  0  0  0  0999 V2000
   54.1100  157.5185   -4.5185 C   0  0  0  0  0  0  0  0  0  0  0  0
   54.8593  154.8035   -5.2859 C   0  0  0  0  0  0  0  0  0  0  0  0
   55.8947  155.6822   -4.6015 C   0  0  0  0  0  0  0  0  0  0  0  0
   53.4985  155.0802   -4.6756 C   0  0  0  0  0  0  0  0  0  0  0  0
   55.5541  157.1507   -4.8419 C   0  0  2  0  0  0  0  0  0  0  0  0
   59.2044  159.5280   -6.0852 C   0  0  0  0  0  0  0  0  0  0  0  0
   57.7609  158.0708   -4.6282 C   0  0  0  0  0  0  0  0  0  0  0  0
   57.7836  159.0741   -5.7786 C   0  0  2  0  0  0  0  0  0  0  0  0
   53.1871  156.4950   -4.5913 N   0  0  0  0  0  0  0  0  0  0  0  0
   56.4279  158.0135   -4.0485 N   0  0  0  0  0  0  0  0  0  0  0  0
   53.7698  158.6806   -4.2863 O   0  0  0  0  0  0  0  0  0  0  0  0
   57.2443  158.4472   -6.9408 O   0  0  0  0  0  0  0  0  0  0  0  0
   54.8418  155.0174   -6.3615 H   0  0  0  0  0  0  0  0  0  0  0  0
   55.1154  153.7452   -5.1667 H   0  0  0  0  0  0  0  0  0  0  0  0
   55.9127  155.4558   -3.5272 H   0  0  0  0  0  0  0  0  0  0  0  0
   56.8924  155.4546   -4.9956 H   0  0  0  0  0  0  0  0  0  0  0  0
   52.7064  154.5987   -5.2575 H   0  0  0  0  0  0  0  0  0  0  0  0
   53.4496  154.6866   -3.6543 H   0  0  0  0  0  0  0  0  0  0  0  0
   55.7005  157.3829   -5.9092 H   0  0  0  0  0  0  0  0  0  0  0  0
   59.8508  158.6781   -6.3244 H   0  0  0  0  0  0  0  0  0  0  0  0
   59.2189  160.2297   -6.9266 H   0  0  0  0  0  0  0  0  0  0  0  0
   59.6312  160.0580   -5.2267 H   0  0  0  0  0  0  0  0  0  0  0  0
   58.0319  157.0695   -4.9800 H   0  0  0  0  0  0  0  0  0  0  0  0
   58.4689  158.3632   -3.8458 H   0  0  0  0  0  0  0  0  0  0  0  0
   57.1589  159.9434   -5.5429 H   0  0  0  0  0  0  0  0  0  0  0  0
   52.2054  156.7543   -4.5854 H   0  0  0  0  0  0  0  0  0  0  0  0
   56.4856  157.6441   -3.1016 H   0  0  0  0  0  0  0  0  0  0  0  0
   57.2571  159.1143   -7.6441 H   0  0  0  0  0  0  0  0  0  0  0  0
  1  5  1  0  0  0  0
  1  9  1  0  0  0  0
  1 11  2  0  0  0  0
  2  3  1  0  0  0  0
  2  4  1  0  0  0  0
  3  5  1  0  0  0  0
  4  9  1  0  0  0  0
  5 10  1  0  0  0  0
  6  8  1  0  0  0  0
  7  8  1  0  0  0  0
  7 10  1  0  0  0  0
  8 12  1  0  0  0  0
  2 13  1  0  0  0  0
  2 14  1  0  0  0  0
  3 15  1  0  0  0  0
  3 16  1  0  0  0  0
  4 17  1  0  0  0  0
  4 18  1  0  0  0  0
  5 19  1  0  0  0  0
  6 20  1  0  0  0  0
  6 21  1  0  0  0  0
  6 22  1  0  0  0  0
  7 23  1  0  0  0  0
  7 24  1  0  0  0  0
  8 25  1  0  0  0  0
  9 26  1  0  0  0  0
 10 27  1  0  0  0  0
 12 28  1  0  0  0  0
M  END
> <FRED Chemgauss4 score>
-4.582991

$$$$
C89086820	P139339947
  -OEChem-05122015083D

 44 45  0     1  0  0  0  0  0999 V2000
   55.1357  158.0713   -2.9993 C   0  0  0  0  0  0  0  0  0  0  0  0
   55.7939  154.5861   -4.9406 C   0  0  0  0  0  0  0  0  0  0  0  0
   60.0147  156.4857   -8.8250 C   0  0  0  0  0  0  0  0  0  0  0  0
   59.4156  155.2076   -8.2942 C   0  0  0  0  0  0  0  0  0  0  0  0
   53.5204  157.8428   -6.8437 C   0  0  0  0  0  0  0  0  0  0  0  0
   53.7419  156.5314   -6.0895 C   0  0  0  0  0  0  0  0  0  0  0  0
   53.8527  159.0804   -4.8239 C   0  0  0  0  0  0  0  0  0  0  0  0
   59.8673  157.4163   -7.6397 C   0  0  0  0  0  0  0  0  0  0  0  0
   54.1060  157.7793   -4.0486 C   0  0  1  0  0  0  0  0  0  0  0  0
   58.2602  155.7376   -7.4626 C   0  0  1  0  0  0  0  0  0  0  0  0
   57.4820  158.8254   -2.6694 C   0  0  0  0  0  0  0  0  0  0  0  0
   54.7805  155.4409   -4.2231 C   0  0  0  0  0  0  0  0  0  0  0  0
   57.8444  154.8058   -6.3409 C   0  0  0  0  0  0  0  0  0  0  0  0
   52.9631  158.8725   -5.9667 N   0  0  0  0  0  0  0  0  0  0  0  0
   54.6274  156.7184   -4.9275 N   0  0  1  0  0  0  0  0  0  0  0  0
   56.3516  158.4896   -3.5052 N   0  0  0  0  0  0  0  0  0  0  0  0
   56.7502  155.3629   -5.5788 N   0  0  0  0  0  0  0  0  0  0  0  0
   54.8496  157.9297   -1.8161 O   0  0  0  0  0  0  0  0  0  0  0  0
   55.7605  153.3584   -4.9449 O   0  0  0  0  0  0  0  0  0  0  0  0
   58.7020  156.9921   -6.9167 O   0  0  0  0  0  0  0  0  0  0  0  0
   61.0500  156.3814   -9.1598 H   0  0  0  0  0  0  0  0  0  0  0  0
   59.4177  156.8549   -9.6673 H   0  0  0  0  0  0  0  0  0  0  0  0
   59.0931  154.5195   -9.0805 H   0  0  0  0  0  0  0  0  0  0  0  0
   60.1501  154.6910   -7.6645 H   0  0  0  0  0  0  0  0  0  0  0  0
   54.4613  158.1925   -7.2873 H   0  0  0  0  0  0  0  0  0  0  0  0
   52.8228  157.6685   -7.6703 H   0  0  0  0  0  0  0  0  0  0  0  0
   52.7713  156.1236   -5.7752 H   0  0  0  0  0  0  0  0  0  0  0  0
   54.1904  155.8087   -6.7821 H   0  0  0  0  0  0  0  0  0  0  0  0
   53.3953  159.8190   -4.1544 H   0  0  0  0  0  0  0  0  0  0  0  0
   54.7975  159.5234   -5.1680 H   0  0  0  0  0  0  0  0  0  0  0  0
   60.7254  157.3358   -6.9640 H   0  0  0  0  0  0  0  0  0  0  0  0
   59.7554  158.4623   -7.9386 H   0  0  0  0  0  0  0  0  0  0  0  0
   53.1822  157.4582   -3.5499 H   0  0  0  0  0  0  0  0  0  0  0  0
   57.3933  155.9442   -8.0980 H   0  0  0  0  0  0  0  0  0  0  0  0
   57.4569  159.8876   -2.4126 H   0  0  0  0  0  0  0  0  0  0  0  0
   58.4169  158.6123   -3.1947 H   0  0  0  0  0  0  0  0  0  0  0  0
   57.4570  158.2395   -1.7467 H   0  0  0  0  0  0  0  0  0  0  0  0
   53.8158  154.9256   -4.1978 H   0  0  0  0  0  0  0  0  0  0  0  0
   55.1155  155.6329   -3.1996 H   0  0  0  0  0  0  0  0  0  0  0  0
   58.6786  154.6374   -5.6532 H   0  0  0  0  0  0  0  0  0  0  0  0
   57.5159  153.8413   -6.7394 H   0  0  0  0  0  0  0  0  0  0  0  0
   52.8648  159.7449   -6.4848 H   0  0  0  0  0  0  0  0  0  0  0  0
   56.4560  158.5647   -4.5126 H   0  0  0  0  0  0  0  0  0  0  0  0
   56.6776  156.3736   -5.5066 H   0  0  0  0  0  0  0  0  0  0  0  0
  1  9  1  0  0  0  0
  1 16  1  0  0  0  0
  1 18  2  0  0  0  0
  2 12  1  0  0  0  0
  2 17  1  0  0  0  0
  2 19  2  0  0  0  0
  3  4  1  0  0  0  0
  3  8  1  0  0  0  0
  4 10  1  0  0  0  0
  5  6  1  0  0  0  0
  5 14  1  0  0  0  0
  6 15  1  0  0  0  0
  7  9  1  0  0  0  0
  7 14  1  0  0  0  0
  8 20  1  0  0  0  0
  9 15  1  0  0  0  0
 10 13  1  0  0  0  0
 10 20  1  0  0  0  0
 11 16  1  0  0  0  0
 12 15  1  0  0  0  0
 13 17  1  0  0  0  0
  3 21  1  0  0  0  0
  3 22  1  0  0  0  0
  4 23  1  0  0  0  0
  4 24  1  0  0  0  0
  5 25  1  0  0  0  0
  5 26  1  0  0  0  0
  6 27  1  0  0  0  0
  6 28  1  0  0  0  0
  7 29  1  0  0  0  0
  7 30  1  0  0  0  0
  8 31  1  0  0  0  0
  8 32  1  0  0  0  0
  9 33  1  0  0  0  0
 10 34  1  0  0  0  0
 11 35  1  0  0  0  0
 11 36  1  0  0  0  0
 11 37  1  0  0  0  0
 12 38  1  0  0  0  0
 12 39  1  0  0  0  0
 13 40  1  0  0  0  0
 13 41  1  0  0  0  0
 14 42  1  0  0  0  0
 16 43  1  0  0  0  0
 17 44  1  0  0  0  0
M  END
> <FRED Chemgauss4 score>
-4.579570

$$$$
C95922221	P151020888
  -OEChem-05122015083D

 19 19  0     1  0  0  0  0  0999 V2000
   54.4472  156.0029   -4.3277 C   0  0  0  0  0  0  0  0  0  0  0  0
   54.7616  154.4019   -5.9991 C   0  0  0  0  0  0  0  0  0  0  0  0
   53.6661  155.0230   -5.1477 C   0  0  2  0  0  0  0  0  0  0  0  0
   56.8020  156.9782   -4.6125 C   0  0  0  0  0  0  0  0  0  0  0  0
   57.9245  156.7979   -5.6119 C   0  0  0  0  0  0  0  0  0  0  0  0
   55.6559  156.1695   -4.9519 N   0  0  0  0  0  0  0  0  0  0  0  0
   52.7068  155.7777   -5.9401 N   0  0  0  0  0  0  0  0  0  0  0  0
   54.0416  156.5557   -3.3162 O   0  0  0  0  0  0  0  0  0  0  0  0
   55.7727  155.4053   -6.1284 O   0  0  0  0  0  0  0  0  0  0  0  0
   58.9701  157.5897   -5.2506 F   0  0  0  0  0  0  0  0  0  0  0  0
   55.1868  153.5034   -5.5323 H   0  0  0  0  0  0  0  0  0  0  0  0
   54.4189  154.1320   -7.0099 H   0  0  0  0  0  0  0  0  0  0  0  0
   53.1900  154.3085   -4.4920 H   0  0  0  0  0  0  0  0  0  0  0  0
   56.4655  158.0187   -4.5912 H   0  0  0  0  0  0  0  0  0  0  0  0
   57.1264  156.6838   -3.6104 H   0  0  0  0  0  0  0  0  0  0  0  0
   57.6217  157.0794   -6.6249 H   0  0  0  0  0  0  0  0  0  0  0  0
   58.2787  155.7635   -5.6182 H   0  0  0  0  0  0  0  0  0  0  0  0
   52.2703  156.5807   -5.5288 H   0  0  0  0  0  0  0  0  0  0  0  0
   52.3561  155.3697   -6.7858 H   0  0  0  0  0  0  0  0  0  0  0  0
  1  3  1  0  0  0  0
  1  6  1  0  0  0  0
  1  8  2  0  0  0  0
  2  3  1  0  0  0  0
  2  9  1  0  0  0  0
  3  7  1  0  0  0  0
  4  5  1  0  0  0  0
  4  6  1  0  0  0  0
  5 10  1  0  0  0  0
  6  9  1  0  0  0  0
  2 11  1  0  0  0  0
  2 12  1  0  0  0  0
  3 13  1  0  0  0  0
  4 14  1  0  0  0  0
  4 15  1  0  0  0  0
  5 16  1  0  0  0  0
  5 17  1  0  0  0  0
  7 18  1  0  0  0  0
  7 19  1  0  0  0  0
M  END
> <FRED Chemgauss4 score>
-4.577744

$$$$
C87694178	P137171372
  -OEChem-05122015083D

 15 15  0     0  0  0  0  0  0999 V2000
   55.8707  157.9265   -4.3662 C   0  0  0  0  0  0  0  0  0  0  0  0
   53.7764  156.8905   -4.0382 C   0  0  0  0  0  0  0  0  0  0  0  0
   57.2088  158.3448   -4.8300 C   0  0  0  0  0  0  0  0  0  0  0  0
   55.2124  158.4646   -3.3617 N   0  0  0  0  0  0  0  0  0  0  0  0
   53.9844  157.8562   -3.1686 N   0  0  0  0  0  0  0  0  0  0  0  0
   52.5773  154.9281   -4.8340 N   0  0  0  0  0  0  0  0  0  0  0  0
   52.6614  156.1180   -4.0941 N   0  0  0  0  0  0  0  0  0  0  0  0
   57.1127  159.5731   -5.5505 O   0  0  0  0  0  0  0  0  0  0  0  0
   55.0525  156.6433   -5.1571 S   0  0  0  0  0  0  0  0  0  0  0  0
   57.9109  158.4959   -3.9914 H   0  0  0  0  0  0  0  0  0  0  0  0
   57.6676  157.5924   -5.4951 H   0  0  0  0  0  0  0  0  0  0  0  0
   51.6880  154.8899   -5.3298 H   0  0  0  0  0  0  0  0  0  0  0  0
   52.5714  154.1420   -4.1853 H   0  0  0  0  0  0  0  0  0  0  0  0
   51.8863  156.2610   -3.4219 H   0  0  0  0  0  0  0  0  0  0  0  0
   58.0131  159.7986   -5.8291 H   0  0  0  0  0  0  0  0  0  0  0  0
  1  3  1  0  0  0  0
  1  4  2  0  0  0  0
  1  9  1  0  0  0  0
  2  5  2  0  0  0  0
  2  7  1  0  0  0  0
  2  9  1  0  0  0  0
  3  8  1  0  0  0  0
  4  5  1  0  0  0  0
  6  7  1  0  0  0  0
  3 10  1  0  0  0  0
  3 11  1  0  0  0  0
  6 12  1  0  0  0  0
  6 13  1  0  0  0  0
  7 14  1  0  0  0  0
  8 15  1  0  0  0  0
M  END
> <FRED Chemgauss4 score>
-4.576491

$$$$
C42031446	P63624753
  -OEChem-05122015083D

 29 30  0     1  0  0  0  0  0999 V2000
   55.2308  154.7737   -4.0738 C   0  0  0  0  0  0  0  0  0  0  0  0
   55.3393  156.5661   -2.8553 C   0  0  0  0  0  0  0  0  0  0  0  0
   56.3820  157.9860   -5.6348 C   0  0  0  0  0  0  0  0  0  0  0  0
   56.3077  156.7502   -6.4757 C   0  0  0  0  0  0  0  0  0  0  0  0
   56.7191  156.6451   -5.0259 C   0  0  0  0  0  0  0  0  0  0  0  0
   55.4650  153.8321   -5.1835 C   0  0  0  0  0  0  0  0  0  0  0  0
   56.8304  159.3200   -0.5495 C   0  0  0  0  0  0  0  0  0  0  0  0
   56.4407  157.9289   -1.0341 C   0  0  0  0  0  0  0  0  0  0  0  0
   55.7214  157.9579   -2.3936 C   0  0  2  0  0  0  0  0  0  0  0  0
   54.4807  154.5760   -3.0133 N   0  0  0  0  0  0  0  0  0  0  0  0
   54.5498  155.7163   -2.2380 N   0  0  0  0  0  0  0  0  0  0  0  0
   55.7906  156.0139   -4.0155 N   0  0  0  0  0  0  0  0  0  0  0  0
   54.5614  158.8200   -2.3554 N   0  0  0  0  0  0  0  0  0  0  0  0
   57.1973  158.6747   -5.8197 H   0  0  0  0  0  0  0  0  0  0  0  0
   55.4493  158.4603   -5.3542 H   0  0  0  0  0  0  0  0  0  0  0  0
   55.3255  156.3938   -6.7612 H   0  0  0  0  0  0  0  0  0  0  0  0
   57.0739  156.6039   -7.2273 H   0  0  0  0  0  0  0  0  0  0  0  0
   57.7408  156.4304   -4.8001 H   0  0  0  0  0  0  0  0  0  0  0  0
   54.7185  153.9655   -5.9845 H   0  0  0  0  0  0  0  0  0  0  0  0
   56.4646  153.9612   -5.6344 H   0  0  0  0  0  0  0  0  0  0  0  0
   55.4154  152.7796   -4.8531 H   0  0  0  0  0  0  0  0  0  0  0  0
   55.9536  159.9720   -0.4828 H   0  0  0  0  0  0  0  0  0  0  0  0
   57.2825  159.2586    0.4456 H   0  0  0  0  0  0  0  0  0  0  0  0
   57.5580  159.7874   -1.2201 H   0  0  0  0  0  0  0  0  0  0  0  0
   57.3454  157.3102   -1.0864 H   0  0  0  0  0  0  0  0  0  0  0  0
   55.7871  157.4717   -0.2802 H   0  0  0  0  0  0  0  0  0  0  0  0
   56.3950  158.4074   -3.1338 H   0  0  0  0  0  0  0  0  0  0  0  0
   53.8417  158.6930   -3.0436 H   0  0  0  0  0  0  0  0  0  0  0  0
   54.5907  159.6449   -1.7840 H   0  0  0  0  0  0  0  0  0  0  0  0
  1  6  1  0  0  0  0
  1 10  2  0  0  0  0
  1 12  1  0  0  0  0
  2  9  1  0  0  0  0
  2 11  2  0  0  0  0
  2 12  1  0  0  0  0
  3  4  1  0  0  0  0
  3  5  1  0  0  0  0
  4  5  1  0  0  0  0
  5 12  1  0  0  0  0
  7  8  1  0  0  0  0
  8  9  1  0  0  0  0
  9 13  1  0  0  0  0
 10 11  1  0  0  0  0
  3 14  1  0  0  0  0
  3 15  1  0  0  0  0
  4 16  1  0  0  0  0
  4 17  1  0  0  0  0
  5 18  1  0  0  0  0
  6 19  1  0  0  0  0
  6 20  1  0  0  0  0
  6 21  1  0  0  0  0
  7 22  1  0  0  0  0
  7 23  1  0  0  0  0
  7 24  1  0  0  0  0
  8 25  1  0  0  0  0
  8 26  1  0  0  0  0
  9 27  1  0  0  0  0
 13 28  1  0  0  0  0
 13 29  1  0  0  0  0
M  END
> <FRED Chemgauss4 score>
-4.576313

$$$$
C88062048	P137749640
  -OEChem-05122015083D

 26 25  0     0  0  0  0  0  0999 V2000
   58.5992  154.3586   -7.5920 C   0  0  0  0  0  0  0  0  0  0  0  0
   54.6829  158.9309   -4.1205 C   0  0  0  0  0  0  0  0  0  0  0  0
   57.2935  154.4569   -6.8322 C   0  0  0  0  0  0  0  0  0  0  0  0
   55.6285  155.9621   -6.1359 C   0  0  0  0  0  0  0  0  0  0  0  0
   53.7311  157.7733   -4.3534 C   0  0  0  0  0  0  0  0  0  0  0  0
   55.8779  156.0308   -4.6418 C   0  0  0  0  0  0  0  0  0  0  0  0
   54.1797  160.1641   -4.6613 N   0  0  0  0  0  0  0  0  0  0  0  0
   53.4589  155.1833   -4.1287 O   0  0  0  0  0  0  0  0  0  0  0  0
   54.7173  156.4369   -2.3352 O   0  0  0  0  0  0  0  0  0  0  0  0
   56.8554  155.8087   -6.8378 O   0  0  0  0  0  0  0  0  0  0  0  0
   54.3655  156.2472   -3.7320 S   0  0  0  0  0  0  0  0  0  0  0  0
   58.4720  154.6798   -8.6295 H   0  0  0  0  0  0  0  0  0  0  0  0
   59.3676  154.9803   -7.1210 H   0  0  0  0  0  0  0  0  0  0  0  0
   58.9735  153.3295   -7.5842 H   0  0  0  0  0  0  0  0  0  0  0  0
   54.8690  159.0897   -3.0537 H   0  0  0  0  0  0  0  0  0  0  0  0
   55.6406  158.7354   -4.6124 H   0  0  0  0  0  0  0  0  0  0  0  0
   57.4276  154.1343   -5.7954 H   0  0  0  0  0  0  0  0  0  0  0  0
   56.5266  153.8359   -7.3045 H   0  0  0  0  0  0  0  0  0  0  0  0
   54.9935  155.1042   -6.3783 H   0  0  0  0  0  0  0  0  0  0  0  0
   55.1362  156.8677   -6.5033 H   0  0  0  0  0  0  0  0  0  0  0  0
   53.5689  157.6234   -5.4250 H   0  0  0  0  0  0  0  0  0  0  0  0
   52.7637  157.9389   -3.8697 H   0  0  0  0  0  0  0  0  0  0  0  0
   56.5224  156.8740   -4.3770 H   0  0  0  0  0  0  0  0  0  0  0  0
   56.3268  155.1015   -4.2801 H   0  0  0  0  0  0  0  0  0  0  0  0
   54.8308  160.8837   -4.9337 H   0  0  0  0  0  0  0  0  0  0  0  0
   53.1981  160.3754   -4.5733 H   0  0  0  0  0  0  0  0  0  0  0  0
  1  3  1  0  0  0  0
  2  5  1  0  0  0  0
  2  7  1  0  0  0  0
  3 10  1  0  0  0  0
  4  6  1  0  0  0  0
  4 10  1  0  0  0  0
  5 11  1  0  0  0  0
  6 11  1  0  0  0  0
  8 11  2  0  0  0  0
  9 11  2  0  0  0  0
  1 12  1  0  0  0  0
  1 13  1  0  0  0  0
  1 14  1  0  0  0  0
  2 15  1  0  0  0  0
  2 16  1  0  0  0  0
  3 17  1  0  0  0  0
  3 18  1  0  0  0  0
  4 19  1  0  0  0  0
  4 20  1  0  0  0  0
  5 21  1  0  0  0  0
  5 22  1  0  0  0  0
  6 23  1  0  0  0  0
  6 24  1  0  0  0  0
  7 25  1  0  0  0  0
  7 26  1  0  0  0  0
M  END
> <FRED Chemgauss4 score>
-4.575799

$$$$
C45322001	P68287759
  -OEChem-05122015083D

 17 17  0     1  0  0  0  0  0999 V2000
   53.6667  155.5584   -3.5624 C   0  0  0  0  0  0  0  0  0  0  0  0
   56.6345  157.8106   -5.7868 C   0  0  0  0  0  0  0  0  0  0  0  0
   56.8601  155.9208   -6.6441 C   0  0  0  0  0  0  0  0  0  0  0  0
   55.5056  154.6383   -4.9277 C   0  0  0  0  0  0  0  0  0  0  0  0
   53.9867  154.7499   -4.7487 C   0  0  2  0  0  0  0  0  0  0  0  0
   53.4114  156.1947   -2.6261 N   0  0  0  0  0  0  0  0  0  0  0  0
   57.2143  157.1691   -6.8436 N   0  0  0  0  0  0  0  0  0  0  0  0
   55.9439  157.0378   -4.9458 N   0  0  0  0  0  0  0  0  0  0  0  0
   56.1040  155.8342   -5.5169 N   0  0  0  0  0  0  0  0  0  0  0  0
   53.3648  155.3336   -5.9131 N   0  0  0  0  0  0  0  0  0  0  0  0
   56.7163  158.8750   -5.6250 H   0  0  0  0  0  0  0  0  0  0  0  0
   57.1119  155.0715   -7.2633 H   0  0  0  0  0  0  0  0  0  0  0  0
   55.7717  153.7827   -5.5624 H   0  0  0  0  0  0  0  0  0  0  0  0
   56.0053  154.4801   -3.9627 H   0  0  0  0  0  0  0  0  0  0  0  0
   53.5445  153.7538   -4.6310 H   0  0  0  0  0  0  0  0  0  0  0  0
   52.4716  155.7833   -5.8131 H   0  0  0  0  0  0  0  0  0  0  0  0
   53.7271  155.1066   -6.8227 H   0  0  0  0  0  0  0  0  0  0  0  0
  1  5  1  0  0  0  0
  1  6  3  0  0  0  0
  2  7  1  0  0  0  0
  2  8  2  0  0  0  0
  3  7  2  0  0  0  0
  3  9  1  0  0  0  0
  4  5  1  0  0  0  0
  4  9  1  0  0  0  0
  5 10  1  0  0  0  0
  8  9  1  0  0  0  0
  2 11  1  0  0  0  0
  3 12  1  0  0  0  0
  4 13  1  0  0  0  0
  4 14  1  0  0  0  0
  5 15  1  0  0  0  0
 10 16  1  0  0  0  0
 10 17  1  0  0  0  0
M  END
> <FRED Chemgauss4 score>
-4.565578

$$$$
C86829149	P135918289
  -OEChem-05122015083D

 24 25  0     1  0  0  0  0  0999 V2000
   55.6909  155.4162   -4.1867 C   0  0  0  0  0  0  0  0  0  0  0  0
   55.1863  157.4447   -3.5586 C   0  0  0  0  0  0  0  0  0  0  0  0
   56.3624  154.4922   -5.0132 C   0  0  0  0  0  0  0  0  0  0  0  0
   57.1554  154.9848   -5.9815 C   0  0  0  0  0  0  0  0  0  0  0  0
   56.7533  157.1786   -5.4781 C   0  0  0  0  0  0  0  0  0  0  0  0
   57.6702  159.2228   -3.0264 C   0  0  0  0  0  0  0  0  0  0  0  0
   56.2449  159.5213   -2.5776 C   0  0  0  0  0  0  0  0  0  0  0  0
   55.1527  158.9173   -3.5035 C   0  0  2  0  0  0  0  0  0  0  0  0
   54.8606  155.3215   -3.1714 N   0  0  0  0  0  0  0  0  0  0  0  0
   54.5411  156.6087   -2.7737 N   0  0  0  0  0  0  0  0  0  0  0  0
   57.3718  156.3258   -6.2399 N   0  0  0  0  0  0  0  0  0  0  0  0
   55.9205  156.7397   -4.4609 N   0  0  0  0  0  0  0  0  0  0  0  0
   53.8470  159.4295   -3.0946 N   0  0  0  0  0  0  0  0  0  0  0  0
   56.2367  153.4265   -4.8654 H   0  0  0  0  0  0  0  0  0  0  0  0
   57.6854  154.3004   -6.6364 H   0  0  0  0  0  0  0  0  0  0  0  0
   56.8846  158.2611   -5.6337 H   0  0  0  0  0  0  0  0  0  0  0  0
   57.8410  159.5740   -4.0491 H   0  0  0  0  0  0  0  0  0  0  0  0
   58.3849  159.7303   -2.3708 H   0  0  0  0  0  0  0  0  0  0  0  0
   57.8843  158.1502   -2.9893 H   0  0  0  0  0  0  0  0  0  0  0  0
   56.1169  159.1544   -1.5515 H   0  0  0  0  0  0  0  0  0  0  0  0
   56.1153  160.6106   -2.5433 H   0  0  0  0  0  0  0  0  0  0  0  0
   55.3080  159.3575   -4.5120 H   0  0  0  0  0  0  0  0  0  0  0  0
   53.0343  158.9499   -3.4151 H   0  0  0  0  0  0  0  0  0  0  0  0
   53.8067  160.3394   -2.6896 H   0  0  0  0  0  0  0  0  0  0  0  0
  1  3  1  0  0  0  0
  1  9  2  0  0  0  0
  1 12  1  0  0  0  0
  2  8  1  0  0  0  0
  2 10  2  0  0  0  0
  2 12  1  0  0  0  0
  3  4  2  0  0  0  0
  4 11  1  0  0  0  0
  5 11  2  0  0  0  0
  5 12  1  0  0  0  0
  6  7  1  0  0  0  0
  7  8  1  0  0  0  0
  8 13  1  0  0  0  0
  9 10  1  0  0  0  0
  3 14  1  0  0  0  0
  4 15  1  0  0  0  0
  5 16  1  0  0  0  0
  6 17  1  0  0  0  0
  6 18  1  0  0  0  0
  6 19  1  0  0  0  0
  7 20  1  0  0  0  0
  7 21  1  0  0  0  0
  8 22  1  0  0  0  0
 13 23  1  0  0  0  0
 13 24  1  0  0  0  0
M  END
> <FRED Chemgauss4 score>
-4.556860

$$$$
C82576096	P129060985
  -OEChem-05122015083D

 23 23  0     1  0  0  0  0  0999 V2000
   54.6516  158.0311   -3.9614 C   0  0  0  0  0  0  0  0  0  0  0  0
   55.9099  156.0059   -5.8619 C   0  0  0  0  0  0  0  0  0  0  0  0
   55.2403  160.3745   -3.2032 C   0  0  0  0  0  0  0  0  0  0  0  0
   53.5785  156.7890   -6.5374 C   0  0  0  0  0  0  0  0  0  0  0  0
   55.0339  157.1838   -6.2769 C   0  0  1  0  0  0  0  0  0  0  0  0
   54.1233  156.9797   -3.3783 N   0  0  0  0  0  0  0  0  0  0  0  0
   53.8807  157.3593   -2.0775 N   0  0  0  0  0  0  0  0  0  0  0  0
   54.2538  158.6162   -1.8699 N   0  0  0  0  0  0  0  0  0  0  0  0
   54.7352  159.0340   -3.0490 N   0  0  0  0  0  0  0  0  0  0  0  0
   53.0987  155.8379   -5.5609 N   0  0  0  0  0  0  0  0  0  0  0  0
   55.0901  158.2142   -5.2602 N   0  0  0  0  0  0  0  0  0  0  0  0
   55.5547  155.5375   -4.9375 H   0  0  0  0  0  0  0  0  0  0  0  0
   55.9065  155.2324   -6.6381 H   0  0  0  0  0  0  0  0  0  0  0  0
   56.9458  156.3255   -5.7087 H   0  0  0  0  0  0  0  0  0  0  0  0
   54.4094  161.0147   -3.5110 H   0  0  0  0  0  0  0  0  0  0  0  0
   55.6561  160.7185   -2.2520 H   0  0  0  0  0  0  0  0  0  0  0  0
   56.0287  160.3786   -3.9610 H   0  0  0  0  0  0  0  0  0  0  0  0
   53.4825  156.3447   -7.5345 H   0  0  0  0  0  0  0  0  0  0  0  0
   52.9384  157.6776   -6.5134 H   0  0  0  0  0  0  0  0  0  0  0  0
   55.4446  157.6022   -7.2034 H   0  0  0  0  0  0  0  0  0  0  0  0
   53.7215  155.1193   -5.2381 H   0  0  0  0  0  0  0  0  0  0  0  0
   52.1123  155.7857   -5.3800 H   0  0  0  0  0  0  0  0  0  0  0  0
   55.4729  159.1139   -5.5199 H   0  0  0  0  0  0  0  0  0  0  0  0
  1  6  2  0  0  0  0
  1  9  1  0  0  0  0
  1 11  1  0  0  0  0
  2  5  1  0  0  0  0
  3  9  1  0  0  0  0
  4  5  1  0  0  0  0
  4 10  1  0  0  0  0
  5 11  1  0  0  0  0
  6  7  1  0  0  0  0
  7  8  2  0  0  0  0
  8  9  1  0  0  0  0
  2 12  1  0  0  0  0
  2 13  1  0  0  0  0
  2 14  1  0  0  0  0
  3 15  1  0  0  0  0
  3 16  1  0  0  0  0
  3 17  1  0  0  0  0
  4 18  1  0  0  0  0
  4 19  1  0  0  0  0
  5 20  1  0  0  0  0
 10 21  1  0  0  0  0
 10 22  1  0  0  0  0
 11 23  1  0  0  0  0
M  END
> <FRED Chemgauss4 score>
-4.550301

$$$$
C40366517	P61281379
  -OEChem-05122015083D

 21 20  0     1  0  0  0  0  0999 V2000
   56.5196  155.0186   -6.0626 C   0  0  0  0  0  0  0  0  0  0  0  0
   55.8155  157.6636   -2.0326 C   0  0  0  0  0  0  0  0  0  0  0  0
   54.0626  155.6768   -6.2266 C   0  0  0  0  0  0  0  0  0  0  0  0
   55.2461  155.3780   -5.3036 C   0  0  2  0  0  0  0  0  0  0  0  0
   52.8006  155.5730   -5.5300 N   0  0  0  0  0  0  0  0  0  0  0  0
   55.4997  156.5108   -4.4369 N   0  0  0  0  0  0  0  0  0  0  0  0
   54.6255  155.3472   -2.2945 O   0  0  0  0  0  0  0  0  0  0  0  0
   53.4601  157.4219   -3.1278 O   0  0  0  0  0  0  0  0  0  0  0  0
   54.6707  156.6464   -2.9364 S   0  0  0  0  0  0  0  0  0  0  0  0
   56.8487  155.8321   -6.7182 H   0  0  0  0  0  0  0  0  0  0  0  0
   57.3388  154.8152   -5.3638 H   0  0  0  0  0  0  0  0  0  0  0  0
   56.3688  154.1237   -6.6751 H   0  0  0  0  0  0  0  0  0  0  0  0
   55.4092  157.8363   -1.0348 H   0  0  0  0  0  0  0  0  0  0  0  0
   56.7694  157.1376   -1.9714 H   0  0  0  0  0  0  0  0  0  0  0  0
   55.9327  158.6078   -2.5665 H   0  0  0  0  0  0  0  0  0  0  0  0
   54.0559  154.9750   -7.0681 H   0  0  0  0  0  0  0  0  0  0  0  0
   54.1571  156.6852   -6.6439 H   0  0  0  0  0  0  0  0  0  0  0  0
   54.9757  154.5243   -4.6711 H   0  0  0  0  0  0  0  0  0  0  0  0
   52.6824  154.8454   -4.8481 H   0  0  0  0  0  0  0  0  0  0  0  0
   52.0116  156.0872   -5.8784 H   0  0  0  0  0  0  0  0  0  0  0  0
   55.6820  157.4095   -4.9252 H   0  0  0  0  0  0  0  0  0  0  0  0
  1  4  1  0  0  0  0
  2  9  1  0  0  0  0
  3  4  1  0  0  0  0
  3  5  1  0  0  0  0
  4  6  1  0  0  0  0
  6  9  1  0  0  0  0
  7  9  2  0  0  0  0
  8  9  2  0  0  0  0
  1 10  1  0  0  0  0
  1 11  1  0  0  0  0
  1 12  1  0  0  0  0
  2 13  1  0  0  0  0
  2 14  1  0  0  0  0
  2 15  1  0  0  0  0
  3 16  1  0  0  0  0
  3 17  1  0  0  0  0
  4 18  1  0  0  0  0
  5 19  1  0  0  0  0
  5 20  1  0  0  0  0
  6 21  1  0  0  0  0
M  END
> <FRED Chemgauss4 score>
-4.544918

$$$$
C85467239	P133776201
  -OEChem-05122015083D

 31 32  0     1  0  0  0  0  0999 V2000
   57.3154  162.2851   -3.9869 C   0  0  0  0  0  0  0  0  0  0  0  0
   55.0593  162.0212   -4.0717 C   0  0  0  0  0  0  0  0  0  0  0  0
   57.5131  161.0342   -4.5350 C   0  0  0  0  0  0  0  0  0  0  0  0
   56.3673  160.3236   -4.8294 C   0  0  0  0  0  0  0  0  0  0  0  0
   55.1729  156.5306   -6.2936 C   0  0  0  0  0  0  0  0  0  0  0  0
   54.5582  157.5216   -5.2852 C   0  0  2  0  0  0  0  0  0  0  0  0
   55.9828  157.8529   -4.7893 C   0  0  1  0  0  0  0  0  0  0  0  0
   56.4970  156.5704   -5.4936 C   0  0  2  0  0  0  0  0  0  0  0  0
   59.3386  155.5825   -7.6151 C   0  0  0  0  0  0  0  0  0  0  0  0
   58.0715  155.4221   -6.8025 C   0  0  0  0  0  0  0  0  0  0  0  0
   56.0980  162.8119   -3.7408 N   0  0  0  0  0  0  0  0  0  0  0  0
   55.1198  160.7882   -4.6098 N   0  0  0  0  0  0  0  0  0  0  0  0
   53.8731  156.7568   -4.2421 N   0  0  0  0  0  0  0  0  0  0  0  0
   56.4872  159.0472   -5.3875 N   0  0  0  0  0  0  0  0  0  0  0  0
   57.7005  156.6801   -6.2749 O   0  0  0  0  0  0  0  0  0  0  0  0
   59.2631  160.3999   -4.8352 Br  0  0  0  0  0  0  0  0  0  0  0  0
   58.1464  162.9298   -3.7170 H   0  0  0  0  0  0  0  0  0  0  0  0
   54.0695  162.4193   -3.8849 H   0  0  0  0  0  0  0  0  0  0  0  0
   54.7223  155.5230   -6.3284 H   0  0  0  0  0  0  0  0  0  0  0  0
   55.2339  156.9027   -7.3284 H   0  0  0  0  0  0  0  0  0  0  0  0
   53.9804  158.3391   -5.7240 H   0  0  0  0  0  0  0  0  0  0  0  0
   56.1414  157.8537   -3.7071 H   0  0  0  0  0  0  0  0  0  0  0  0
   56.6025  155.7134   -4.7998 H   0  0  0  0  0  0  0  0  0  0  0  0
   59.1844  156.2773   -8.4453 H   0  0  0  0  0  0  0  0  0  0  0  0
   60.1546  155.9565   -6.9880 H   0  0  0  0  0  0  0  0  0  0  0  0
   59.6634  154.6174   -8.0179 H   0  0  0  0  0  0  0  0  0  0  0  0
   58.2326  154.7261   -5.9738 H   0  0  0  0  0  0  0  0  0  0  0  0
   57.2570  155.0492   -7.4306 H   0  0  0  0  0  0  0  0  0  0  0  0
   53.2563  156.0232   -4.5222 H   0  0  0  0  0  0  0  0  0  0  0  0
   53.8818  157.1159   -3.3104 H   0  0  0  0  0  0  0  0  0  0  0  0
   56.9749  158.9883   -6.2867 H   0  0  0  0  0  0  0  0  0  0  0  0
  1  3  2  0  0  0  0
  1 11  1  0  0  0  0
  2 11  2  0  0  0  0
  2 12  1  0  0  0  0
  3  4  1  0  0  0  0
  3 16  1  0  0  0  0
  4 12  2  0  0  0  0
  4 14  1  0  0  0  0
  5  6  1  0  0  0  0
  5  8  1  0  0  0  0
  6  7  1  0  0  0  0
  6 13  1  0  0  0  0
  7  8  1  0  0  0  0
  7 14  1  0  0  0  0
  8 15  1  0  0  0  0
  9 10  1  0  0  0  0
 10 15  1  0  0  0  0
  1 17  1  0  0  0  0
  2 18  1  0  0  0  0
  5 19  1  0  0  0  0
  5 20  1  0  0  0  0
  6 21  1  0  0  0  0
  7 22  1  0  0  0  0
  8 23  1  0  0  0  0
  9 24  1  0  0  0  0
  9 25  1  0  0  0  0
  9 26  1  0  0  0  0
 10 27  1  0  0  0  0
 10 28  1  0  0  0  0
 13 29  1  0  0  0  0
 13 30  1  0  0  0  0
 14 31  1  0  0  0  0
M  END
> <FRED Chemgauss4 score>
-4.544243

$$$$
C70533423	P108804873
  -OEChem-05122015083D

 25 25  0     1  0  0  0  0  0999 V2000
   56.1310  154.5652   -6.8160 C   0  0  0  0  0  0  0  0  0  0  0  0
   56.1008  154.2655   -5.3193 C   0  0  0  0  0  0  0  0  0  0  0  0
   56.6293  155.9803   -7.0764 C   0  0  0  0  0  0  0  0  0  0  0  0
   55.9513  156.7410   -4.9388 C   0  0  0  0  0  0  0  0  0  0  0  0
   55.3983  155.3739   -4.5241 C   0  0  1  0  0  0  0  0  0  0  0  0
   53.1583  156.1100   -3.6303 C   0  0  0  0  0  0  0  0  0  0  0  0
   53.8800  155.3181   -4.7169 C   0  0  1  0  0  0  0  0  0  0  0  0
   53.0792  155.3218   -2.4211 N   0  0  0  0  0  0  0  0  0  0  0  0
   55.8550  156.9344   -6.3505 O   0  0  0  0  0  0  0  0  0  0  0  0
   53.5620  155.8872   -5.9848 O   0  0  0  0  0  0  0  0  0  0  0  0
   56.8075  153.8503   -7.3017 H   0  0  0  0  0  0  0  0  0  0  0  0
   55.1354  154.4253   -7.2515 H   0  0  0  0  0  0  0  0  0  0  0  0
   55.5840  153.3043   -5.1559 H   0  0  0  0  0  0  0  0  0  0  0  0
   57.1299  154.1268   -4.9495 H   0  0  0  0  0  0  0  0  0  0  0  0
   57.6697  156.0750   -6.7471 H   0  0  0  0  0  0  0  0  0  0  0  0
   56.5990  156.2235   -8.1458 H   0  0  0  0  0  0  0  0  0  0  0  0
   55.4301  157.5618   -4.4254 H   0  0  0  0  0  0  0  0  0  0  0  0
   57.0128  156.8148   -4.6702 H   0  0  0  0  0  0  0  0  0  0  0  0
   55.6223  155.2198   -3.4642 H   0  0  0  0  0  0  0  0  0  0  0  0
   53.6922  157.0398   -3.4065 H   0  0  0  0  0  0  0  0  0  0  0  0
   52.1418  156.3652   -3.9470 H   0  0  0  0  0  0  0  0  0  0  0  0
   53.5463  154.2747   -4.7201 H   0  0  0  0  0  0  0  0  0  0  0  0
   52.3464  155.5172   -1.7632 H   0  0  0  0  0  0  0  0  0  0  0  0
   53.8610  154.7450   -2.1676 H   0  0  0  0  0  0  0  0  0  0  0  0
   53.8816  156.8024   -5.9642 H   0  0  0  0  0  0  0  0  0  0  0  0
  1  2  1  0  0  0  0
  1  3  1  0  0  0  0
  2  5  1  0  0  0  0
  3  9  1  0  0  0  0
  4  5  1  0  0  0  0
  4  9  1  0  0  0  0
  5  7  1  0  0  0  0
  6  7  1  0  0  0  0
  6  8  1  0  0  0  0
  7 10  1  0  0  0  0
  1 11  1  0  0  0  0
  1 12  1  0  0  0  0
  2 13  1  0  0  0  0
  2 14  1  0  0  0  0
  3 15  1  0  0  0  0
  3 16  1  0  0  0  0
  4 17  1  0  0  0  0
  4 18  1  0  0  0  0
  5 19  1  0  0  0  0
  6 20  1  0  0  0  0
  6 21  1  0  0  0  0
  7 22  1  0  0  0  0
  8 23  1  0  0  0  0
  8 24  1  0  0  0  0
 10 25  1  0  0  0  0
M  END
> <FRED Chemgauss4 score>
-4.542453

$$$$
C97621240	P154764801
  -OEChem-05122015083D

 46 47  0     1  0  0  0  0  0999 V2000
   54.4875  159.8722   -3.1132 C   0  0  0  0  0  0  0  0  0  0  0  0
   54.6873  159.4523   -4.4419 C   0  0  0  0  0  0  0  0  0  0  0  0
   54.8566  158.0924   -4.3504 C   0  0  0  0  0  0  0  0  0  0  0  0
   58.1914  153.3901   -7.7507 C   0  0  0  0  0  0  0  0  0  0  0  0
   58.8957  154.7406   -7.6110 C   0  0  0  0  0  0  0  0  0  0  0  0
   56.2703  154.2793   -6.6115 C   0  0  0  0  0  0  0  0  0  0  0  0
   56.9720  155.6465   -6.4468 C   0  0  1  0  0  0  0  0  0  0  0  0
   54.8634  156.4857   -2.4175 C   0  0  0  0  0  0  0  0  0  0  0  0
   56.0587  152.2897   -7.9576 C   0  0  0  0  0  0  0  0  0  0  0  0
   59.1631  156.7353   -6.3093 C   0  0  0  0  0  0  0  0  0  0  0  0
   54.5144  161.5992   -5.4502 C   0  0  0  0  0  0  0  0  0  0  0  0
   56.4367  156.3130   -5.1718 C   0  0  0  0  0  0  0  0  0  0  0  0
   55.1091  157.0427   -5.4137 C   0  0  1  0  0  0  0  0  0  0  0  0
   54.5258  158.8609   -2.2415 N   0  0  0  0  0  0  0  0  0  0  0  0
   54.7515  157.7920   -3.0242 N   0  0  0  0  0  0  0  0  0  0  0  0
   56.7393  153.5750   -7.8105 N   0  0  2  0  0  0  0  0  0  0  0  0
   58.4395  155.4660   -6.4145 N   0  0  2  0  0  0  0  0  0  0  0  0
   52.9417  156.7392   -6.2360 N   0  0  0  0  0  0  0  0  0  0  0  0
   53.9971  156.1219   -5.4923 N   0  0  0  0  0  0  0  0  0  0  0  0
   54.7138  160.1804   -5.5644 O   0  0  0  0  0  0  0  0  0  0  0  0
   54.3137  160.8725   -2.7425 H   0  0  0  0  0  0  0  0  0  0  0  0
   58.5438  152.9111   -8.6724 H   0  0  0  0  0  0  0  0  0  0  0  0
   58.4727  152.7355   -6.9144 H   0  0  0  0  0  0  0  0  0  0  0  0
   59.9744  154.5534   -7.5407 H   0  0  0  0  0  0  0  0  0  0  0  0
   58.7283  155.3401   -8.5163 H   0  0  0  0  0  0  0  0  0  0  0  0
   56.4311  153.6649   -5.7142 H   0  0  0  0  0  0  0  0  0  0  0  0
   55.1892  154.4498   -6.6965 H   0  0  0  0  0  0  0  0  0  0  0  0
   56.6974  156.2809   -7.3018 H   0  0  0  0  0  0  0  0  0  0  0  0
   55.9136  156.3209   -2.1630 H   0  0  0  0  0  0  0  0  0  0  0  0
   54.2416  156.4473   -1.5187 H   0  0  0  0  0  0  0  0  0  0  0  0
   54.5168  155.7277   -3.1254 H   0  0  0  0  0  0  0  0  0  0  0  0
   54.9769  152.4401   -8.0011 H   0  0  0  0  0  0  0  0  0  0  0  0
   56.2899  151.6402   -7.1089 H   0  0  0  0  0  0  0  0  0  0  0  0
   56.3823  151.7937   -8.8767 H   0  0  0  0  0  0  0  0  0  0  0  0
   58.8326  157.2839   -5.4235 H   0  0  0  0  0  0  0  0  0  0  0  0
   58.9775  157.3506   -7.1938 H   0  0  0  0  0  0  0  0  0  0  0  0
   60.2380  156.5520   -6.2291 H   0  0  0  0  0  0  0  0  0  0  0  0
   54.5624  162.0556   -6.4419 H   0  0  0  0  0  0  0  0  0  0  0  0
   55.2854  162.0256   -4.8035 H   0  0  0  0  0  0  0  0  0  0  0  0
   53.5307  161.7859   -5.0129 H   0  0  0  0  0  0  0  0  0  0  0  0
   56.3304  155.5407   -4.4046 H   0  0  0  0  0  0  0  0  0  0  0  0
   57.1958  157.0181   -4.8200 H   0  0  0  0  0  0  0  0  0  0  0  0
   55.1504  157.5312   -6.3952 H   0  0  0  0  0  0  0  0  0  0  0  0
   53.2498  157.6546   -6.5628 H   0  0  0  0  0  0  0  0  0  0  0  0
   52.7586  156.1911   -7.0756 H   0  0  0  0  0  0  0  0  0  0  0  0
   53.6536  155.9051   -4.5536 H   0  0  0  0  0  0  0  0  0  0  0  0
  1  2  1  0  0  0  0
  1 14  2  0  0  0  0
  2  3  2  0  0  0  0
  2 20  1  0  0  0  0
  3 13  1  0  0  0  0
  3 15  1  0  0  0  0
  4  5  1  0  0  0  0
  4 16  1  0  0  0  0
  5 17  1  0  0  0  0
  6  7  1  0  0  0  0
  6 16  1  0  0  0  0
  7 12  1  0  0  0  0
  7 17  1  0  0  0  0
  8 15  1  0  0  0  0
  9 16  1  0  0  0  0
 10 17  1  0  0  0  0
 11 20  1  0  0  0  0
 12 13  1  0  0  0  0
 13 19  1  0  0  0  0
 14 15  1  0  0  0  0
 18 19  1  0  0  0  0
  1 21  1  0  0  0  0
  4 22  1  0  0  0  0
  4 23  1  0  0  0  0
  5 24  1  0  0  0  0
  5 25  1  0  0  0  0
  6 26  1  0  0  0  0
  6 27  1  0  0  0  0
  7 28  1  0  0  0  0
  8 29  1  0  0  0  0
  8 30  1  0  0  0  0
  8 31  1  0  0  0  0
  9 32  1  0  0  0  0
  9 33  1  0  0  0  0
  9 34  1  0  0  0  0
 10 35  1  0  0  0  0
 10 36  1  0  0  0  0
 10 37  1  0  0  0  0
 11 38  1  0  0  0  0
 11 39  1  0  0  0  0
 11 40  1  0  0  0  0
 12 41  1  0  0  0  0
 12 42  1  0  0  0  0
 13 43  1  0  0  0  0
 18 44  1  0  0  0  0
 18 45  1  0  0  0  0
 19 46  1  0  0  0  0
M  END
> <FRED Chemgauss4 score>
-4.541126

$$$$
C19166970	P53131085
  -OEChem-05122015083D

 25 25  0     0  0  0  0  0  0999 V2000
   54.7908  155.2986   -5.9734 C   0  0  0  0  0  0  0  0  0  0  0  0
   56.5760  156.7390   -5.2245 C   0  0  0  0  0  0  0  0  0  0  0  0
   55.7967  154.1613   -6.1904 C   0  0  0  0  0  0  0  0  0  0  0  0
   57.5850  155.6041   -5.4406 C   0  0  0  0  0  0  0  0  0  0  0  0
   55.0550  155.7592   -3.6018 C   0  0  0  0  0  0  0  0  0  0  0  0
   53.5973  155.8403   -3.1867 C   0  0  0  0  0  0  0  0  0  0  0  0
   55.2074  156.2765   -4.9600 N   0  0  0  0  0  0  0  0  0  0  0  0
   57.1268  154.6958   -6.4956 N   0  0  0  0  0  0  0  0  0  0  0  0
   58.0307  153.6652   -6.6690 N   0  0  0  0  0  0  0  0  0  0  0  0
   53.1794  157.1994   -3.1934 O   0  0  0  0  0  0  0  0  0  0  0  0
   54.6420  155.8146   -6.9444 H   0  0  0  0  0  0  0  0  0  0  0  0
   53.7999  154.8670   -5.7118 H   0  0  0  0  0  0  0  0  0  0  0  0
   56.9311  157.3932   -4.3982 H   0  0  0  0  0  0  0  0  0  0  0  0
   56.5803  157.3788   -6.1309 H   0  0  0  0  0  0  0  0  0  0  0  0
   55.8374  153.5569   -5.2754 H   0  0  0  0  0  0  0  0  0  0  0  0
   55.4353  153.5065   -6.9961 H   0  0  0  0  0  0  0  0  0  0  0  0
   58.5675  156.0341   -5.6828 H   0  0  0  0  0  0  0  0  0  0  0  0
   57.6951  155.0557   -4.4966 H   0  0  0  0  0  0  0  0  0  0  0  0
   55.6908  156.3512   -2.9359 H   0  0  0  0  0  0  0  0  0  0  0  0
   55.3964  154.7196   -3.5924 H   0  0  0  0  0  0  0  0  0  0  0  0
   53.4752  155.4543   -2.1699 H   0  0  0  0  0  0  0  0  0  0  0  0
   52.9534  155.2705   -3.8646 H   0  0  0  0  0  0  0  0  0  0  0  0
   57.6915  153.0645   -7.4123 H   0  0  0  0  0  0  0  0  0  0  0  0
   58.0420  153.1077   -5.8221 H   0  0  0  0  0  0  0  0  0  0  0  0
   52.2469  157.2063   -2.9236 H   0  0  0  0  0  0  0  0  0  0  0  0
  1  3  1  0  0  0  0
  1  7  1  0  0  0  0
  2  4  1  0  0  0  0
  2  7  1  0  0  0  0
  3  8  1  0  0  0  0
  4  8  1  0  0  0  0
  5  6  1  0  0  0  0
  5  7  1  0  0  0  0
  6 10  1  0  0  0  0
  8  9  1  0  0  0  0
  1 11  1  0  0  0  0
  1 12  1  0  0  0  0
  2 13  1  0  0  0  0
  2 14  1  0  0  0  0
  3 15  1  0  0  0  0
  3 16  1  0  0  0  0
  4 17  1  0  0  0  0
  4 18  1  0  0  0  0
  5 19  1  0  0  0  0
  5 20  1  0  0  0  0
  6 21  1  0  0  0  0
  6 22  1  0  0  0  0
  9 23  1  0  0  0  0
  9 24  1  0  0  0  0
 10 25  1  0  0  0  0
M  END
> <FRED Chemgauss4 score>
-4.535664

$$$$
C95869685	P150893526
  -OEChem-05122015083D

 16 16  0     1  0  0  0  0  0999 V2000
   54.0216  156.1366   -5.3087 C   0  0  0  0  0  0  0  0  0  0  0  0
   55.9030  157.5237   -4.2900 C   0  0  0  0  0  0  0  0  0  0  0  0
   56.2315  155.6914   -5.9204 C   0  0  0  0  0  0  0  0  0  0  0  0
   54.4506  157.1433   -4.2642 C   0  0  2  0  0  0  0  0  0  0  0  0
   54.8778  155.4791   -6.0348 N   0  0  0  0  0  0  0  0  0  0  0  0
   56.6817  156.7266   -5.1056 N   0  0  0  0  0  0  0  0  0  0  0  0
   52.6663  155.9501   -5.4494 N   0  0  0  0  0  0  0  0  0  0  0  0
   54.1959  156.5442   -2.9552 N   0  0  0  0  0  0  0  0  0  0  0  0
   56.3565  158.4400   -3.6062 O   0  0  0  0  0  0  0  0  0  0  0  0
   57.0463  155.0000   -6.5345 O   0  0  0  0  0  0  0  0  0  0  0  0
   53.8540  158.0543   -4.3887 H   0  0  0  0  0  0  0  0  0  0  0  0
   57.6805  156.9139   -5.1117 H   0  0  0  0  0  0  0  0  0  0  0  0
   52.0604  156.4773   -4.8680 H   0  0  0  0  0  0  0  0  0  0  0  0
   52.3532  155.2964   -6.1260 H   0  0  0  0  0  0  0  0  0  0  0  0
   53.3982  155.9556   -2.8578 H   0  0  0  0  0  0  0  0  0  0  0  0
   54.6983  156.9007   -2.1723 H   0  0  0  0  0  0  0  0  0  0  0  0
  1  4  1  0  0  0  0
  1  5  2  0  0  0  0
  1  7  1  0  0  0  0
  2  4  1  0  0  0  0
  2  6  1  0  0  0  0
  2  9  2  0  0  0  0
  3  5  1  0  0  0  0
  3  6  1  0  0  0  0
  3 10  2  0  0  0  0
  4  8  1  0  0  0  0
  4 11  1  0  0  0  0
  6 12  1  0  0  0  0
  7 13  1  0  0  0  0
  7 14  1  0  0  0  0
  8 15  1  0  0  0  0
  8 16  1  0  0  0  0
M  END
> <FRED Chemgauss4 score>
-4.532564

$$$$
C54503976	P82019619
  -OEChem-05122015083D

 29 30  0     1  0  0  0  0  0999 V2000
   55.8822  160.9840   -3.3237 C   0  0  0  0  0  0  0  0  0  0  0  0
   55.4999  158.8540   -3.1628 C   0  0  0  0  0  0  0  0  0  0  0  0
   55.7069  155.4742   -5.1622 C   0  0  0  0  0  0  0  0  0  0  0  0
   56.6953  156.5223   -5.5912 C   0  0  0  0  0  0  0  0  0  0  0  0
   55.4892  156.9127   -4.7825 C   0  0  0  0  0  0  0  0  0  0  0  0
   56.5095  162.2555   -3.7259 C   0  0  0  0  0  0  0  0  0  0  0  0
   58.6708  159.0214   -3.8472 C   0  0  0  0  0  0  0  0  0  0  0  0
   57.4486  159.5006   -4.6114 C   0  0  0  0  0  0  0  0  0  0  0  0
   55.6440  157.3460   -3.3660 C   0  0  2  0  0  0  0  0  0  0  0  0
   54.8408  160.8282   -2.5379 N   0  0  0  0  0  0  0  0  0  0  0  0
   54.5975  159.4731   -2.4356 N   0  0  0  0  0  0  0  0  0  0  0  0
   56.3294  159.7669   -3.7402 N   0  0  0  0  0  0  0  0  0  0  0  0
   54.7288  156.6406   -2.4756 N   0  0  0  0  0  0  0  0  0  0  0  0
   55.0741  155.0370   -5.9247 H   0  0  0  0  0  0  0  0  0  0  0  0
   56.0082  154.7870   -4.3810 H   0  0  0  0  0  0  0  0  0  0  0  0
   57.6594  156.5376   -5.0979 H   0  0  0  0  0  0  0  0  0  0  0  0
   56.7240  156.7871   -6.6410 H   0  0  0  0  0  0  0  0  0  0  0  0
   54.6977  157.4521   -5.2887 H   0  0  0  0  0  0  0  0  0  0  0  0
   57.3029  162.5510   -3.0187 H   0  0  0  0  0  0  0  0  0  0  0  0
   56.9640  162.1959   -4.7306 H   0  0  0  0  0  0  0  0  0  0  0  0
   55.7796  163.0830   -3.7726 H   0  0  0  0  0  0  0  0  0  0  0  0
   58.9933  159.7647   -3.1104 H   0  0  0  0  0  0  0  0  0  0  0  0
   59.5019  158.8406   -4.5358 H   0  0  0  0  0  0  0  0  0  0  0  0
   58.4620  158.0894   -3.3115 H   0  0  0  0  0  0  0  0  0  0  0  0
   57.1336  158.7506   -5.3458 H   0  0  0  0  0  0  0  0  0  0  0  0
   57.6737  160.4208   -5.1624 H   0  0  0  0  0  0  0  0  0  0  0  0
   56.6486  157.0553   -2.9967 H   0  0  0  0  0  0  0  0  0  0  0  0
   54.5126  157.0583   -1.5958 H   0  0  0  0  0  0  0  0  0  0  0  0
   54.5145  155.6878   -2.6799 H   0  0  0  0  0  0  0  0  0  0  0  0
  1  6  1  0  0  0  0
  1 10  2  0  0  0  0
  1 12  1  0  0  0  0
  2  9  1  0  0  0  0
  2 11  2  0  0  0  0
  2 12  1  0  0  0  0
  3  4  1  0  0  0  0
  3  5  1  0  0  0  0
  4  5  1  0  0  0  0
  5  9  1  0  0  0  0
  7  8  1  0  0  0  0
  8 12  1  0  0  0  0
  9 13  1  0  0  0  0
 10 11  1  0  0  0  0
  3 14  1  0  0  0  0
  3 15  1  0  0  0  0
  4 16  1  0  0  0  0
  4 17  1  0  0  0  0
  5 18  1  0  0  0  0
  6 19  1  0  0  0  0
  6 20  1  0  0  0  0
  6 21  1  0  0  0  0
  7 22  1  0  0  0  0
  7 23  1  0  0  0  0
  7 24  1  0  0  0  0
  8 25  1  0  0  0  0
  8 26  1  0  0  0  0
  9 27  1  0  0  0  0
 13 28  1  0  0  0  0
 13 29  1  0  0  0  0
M  END
> <FRED Chemgauss4 score>
-4.529004

$$$$
C05669319	P122489113
  -OEChem-05122015083D

 35 35  0     0  0  0  0  0  0999 V2000
   55.8825  156.1077   -5.0762 C   0  0  0  0  0  0  0  0  0  0  0  0
   56.6785  155.1987   -5.9442 C   0  0  0  0  0  0  0  0  0  0  0  0
   54.3982  156.0428   -5.0012 C   0  0  0  0  0  0  0  0  0  0  0  0
   54.5256  154.1877   -6.6389 C   0  0  0  0  0  0  0  0  0  0  0  0
   56.5241  157.0154   -4.3373 C   0  0  0  0  0  0  0  0  0  0  0  0
   59.2742  161.7906   -3.5325 C   0  0  0  0  0  0  0  0  0  0  0  0
   57.4617  163.5302   -3.6100 C   0  0  0  0  0  0  0  0  0  0  0  0
   57.9534  162.3247   -1.4600 C   0  0  0  0  0  0  0  0  0  0  0  0
   56.4852  158.3876   -2.3268 C   0  0  0  0  0  0  0  0  0  0  0  0
   57.4600  159.5288   -2.5838 C   0  0  0  0  0  0  0  0  0  0  0  0
   57.9048  162.2039   -2.9858 C   0  0  0  0  0  0  0  0  0  0  0  0
   55.9032  154.2999   -6.6635 N   0  0  0  0  0  0  0  0  0  0  0  0
   53.8448  155.0615   -5.8119 N   0  0  0  0  0  0  0  0  0  0  0  0
   55.8947  157.8704   -3.5315 N   0  0  0  0  0  0  0  0  0  0  0  0
   57.9031  155.2410   -6.0153 O   0  0  0  0  0  0  0  0  0  0  0  0
   53.7292  156.7869   -4.2903 O   0  0  0  0  0  0  0  0  0  0  0  0
   53.7220  153.0506   -7.5642 S   0  0  0  0  0  0  0  0  0  0  0  0
   56.6786  160.9150   -3.4351 S   0  0  0  0  0  0  0  0  0  0  0  0
   57.6035  157.1024   -4.3555 H   0  0  0  0  0  0  0  0  0  0  0  0
   59.6149  160.8423   -3.1004 H   0  0  0  0  0  0  0  0  0  0  0  0
   59.2322  161.6550   -4.6196 H   0  0  0  0  0  0  0  0  0  0  0  0
   60.0389  162.5498   -3.3305 H   0  0  0  0  0  0  0  0  0  0  0  0
   56.4822  163.8492   -3.2346 H   0  0  0  0  0  0  0  0  0  0  0  0
   57.4019  163.4655   -4.7028 H   0  0  0  0  0  0  0  0  0  0  0  0
   58.1750  164.3279   -3.3714 H   0  0  0  0  0  0  0  0  0  0  0  0
   56.9830  162.6201   -1.0442 H   0  0  0  0  0  0  0  0  0  0  0  0
   58.2220  161.3645   -1.0042 H   0  0  0  0  0  0  0  0  0  0  0  0
   58.7001  163.0583   -1.1339 H   0  0  0  0  0  0  0  0  0  0  0  0
   55.6592  158.7485   -1.7049 H   0  0  0  0  0  0  0  0  0  0  0  0
   56.9606  157.5543   -1.7989 H   0  0  0  0  0  0  0  0  0  0  0  0
   57.8879  159.8953   -1.6451 H   0  0  0  0  0  0  0  0  0  0  0  0
   58.2808  159.1733   -3.2144 H   0  0  0  0  0  0  0  0  0  0  0  0
   56.4018  153.6569   -7.2723 H   0  0  0  0  0  0  0  0  0  0  0  0
   52.8323  154.9771   -5.7946 H   0  0  0  0  0  0  0  0  0  0  0  0
   54.9509  158.1588   -3.8014 H   0  0  0  0  0  0  0  0  0  0  0  0
  1  2  1  0  0  0  0
  1  3  1  0  0  0  0
  1  5  2  0  0  0  0
  2 12  1  0  0  0  0
  2 15  2  0  0  0  0
  3 13  1  0  0  0  0
  3 16  2  0  0  0  0
  4 12  1  0  0  0  0
  4 13  1  0  0  0  0
  4 17  2  0  0  0  0
  5 14  1  0  0  0  0
  6 11  1  0  0  0  0
  7 11  1  0  0  0  0
  8 11  1  0  0  0  0
  9 10  1  0  0  0  0
  9 14  1  0  0  0  0
 10 18  1  0  0  0  0
 11 18  1  0  0  0  0
  5 19  1  0  0  0  0
  6 20  1  0  0  0  0
  6 21  1  0  0  0  0
  6 22  1  0  0  0  0
  7 23  1  0  0  0  0
  7 24  1  0  0  0  0
  7 25  1  0  0  0  0
  8 26  1  0  0  0  0
  8 27  1  0  0  0  0
  8 28  1  0  0  0  0
  9 29  1  0  0  0  0
  9 30  1  0  0  0  0
 10 31  1  0  0  0  0
 10 32  1  0  0  0  0
 12 33  1  0  0  0  0
 13 34  1  0  0  0  0
 14 35  1  0  0  0  0
M  END
> <FRED Chemgauss4 score>
-4.525630

$$$$
C85798425	P134352706
  -OEChem-05122015083D

 31 31  0     1  0  0  0  0  0999 V2000
   55.8048  159.2233   -0.9309 C   0  0  0  0  0  0  0  0  0  0  0  0
   56.9257  159.4557   -1.6925 C   0  0  0  0  0  0  0  0  0  0  0  0
   55.4827  158.1713   -2.7531 C   0  0  0  0  0  0  0  0  0  0  0  0
   58.4138  159.9952   -4.1390 C   0  0  0  0  0  0  0  0  0  0  0  0
   55.9538  154.2367   -5.7242 C   0  0  0  0  0  0  0  0  0  0  0  0
   56.1410  156.4713   -6.5868 C   0  0  0  0  0  0  0  0  0  0  0  0
   57.6091  158.7166   -3.9811 C   0  0  0  0  0  0  0  0  0  0  0  0
   55.7822  156.1164   -4.2377 C   0  0  0  0  0  0  0  0  0  0  0  0
   54.9026  157.3217   -3.8704 C   0  0  1  0  0  0  0  0  0  0  0  0
   54.9105  158.4228   -1.5966 N   0  0  0  0  0  0  0  0  0  0  0  0
   56.7050  158.7751   -2.8567 N   0  0  0  0  0  0  0  0  0  0  0  0
   53.5525  156.8589   -3.5276 N   0  0  0  0  0  0  0  0  0  0  0  0
   55.5010  155.6202   -5.5844 N   0  0  0  0  0  0  0  0  0  0  0  0
   55.5963  159.5915    0.0630 H   0  0  0  0  0  0  0  0  0  0  0  0
   57.8269  160.0252   -1.5125 H   0  0  0  0  0  0  0  0  0  0  0  0
   57.7580  160.8600   -4.2852 H   0  0  0  0  0  0  0  0  0  0  0  0
   59.0784  159.9206   -5.0053 H   0  0  0  0  0  0  0  0  0  0  0  0
   59.0278  160.1880   -3.2530 H   0  0  0  0  0  0  0  0  0  0  0  0
   55.4720  153.6059   -4.9726 H   0  0  0  0  0  0  0  0  0  0  0  0
   57.0374  154.1783   -5.5905 H   0  0  0  0  0  0  0  0  0  0  0  0
   55.7022  153.8552   -6.7174 H   0  0  0  0  0  0  0  0  0  0  0  0
   55.7987  157.5036   -6.4771 H   0  0  0  0  0  0  0  0  0  0  0  0
   55.8921  156.1230   -7.5929 H   0  0  0  0  0  0  0  0  0  0  0  0
   57.2274  156.4461   -6.4659 H   0  0  0  0  0  0  0  0  0  0  0  0
   58.2736  157.8574   -3.8355 H   0  0  0  0  0  0  0  0  0  0  0  0
   57.0157  158.5199   -4.8812 H   0  0  0  0  0  0  0  0  0  0  0  0
   56.8420  156.3954   -4.2262 H   0  0  0  0  0  0  0  0  0  0  0  0
   55.6531  155.2769   -3.5463 H   0  0  0  0  0  0  0  0  0  0  0  0
   54.8041  157.9502   -4.7652 H   0  0  0  0  0  0  0  0  0  0  0  0
   53.2023  156.0619   -4.0062 H   0  0  0  0  0  0  0  0  0  0  0  0
   52.9775  157.4683   -2.9937 H   0  0  0  0  0  0  0  0  0  0  0  0
  1  2  2  0  0  0  0
  1 10  1  0  0  0  0
  2 11  1  0  0  0  0
  3  9  1  0  0  0  0
  3 10  2  0  0  0  0
  3 11  1  0  0  0  0
  4  7  1  0  0  0  0
  5 13  1  0  0  0  0
  6 13  1  0  0  0  0
  7 11  1  0  0  0  0
  8  9  1  0  0  0  0
  8 13  1  0  0  0  0
  9 12  1  0  0  0  0
  1 14  1  0  0  0  0
  2 15  1  0  0  0  0
  4 16  1  0  0  0  0
  4 17  1  0  0  0  0
  4 18  1  0  0  0  0
  5 19  1  0  0  0  0
  5 20  1  0  0  0  0
  5 21  1  0  0  0  0
  6 22  1  0  0  0  0
  6 23  1  0  0  0  0
  6 24  1  0  0  0  0
  7 25  1  0  0  0  0
  7 26  1  0  0  0  0
  8 27  1  0  0  0  0
  8 28  1  0  0  0  0
  9 29  1  0  0  0  0
 12 30  1  0  0  0  0
 12 31  1  0  0  0  0
M  END
> <FRED Chemgauss4 score>
-4.524632

$$$$
C79518003	P124270678
  -OEChem-05122015083D

 44 45  0     1  0  0  0  0  0999 V2000
   54.8583  157.1472   -3.8451 C   0  0  0  0  0  0  0  0  0  0  0  0
   55.7663  154.4464   -6.1711 C   0  0  0  0  0  0  0  0  0  0  0  0
   55.1470  160.7954   -4.0156 C   0  0  0  0  0  0  0  0  0  0  0  0
   57.0568  154.9058   -6.8540 C   0  0  0  0  0  0  0  0  0  0  0  0
   55.6101  159.4422   -4.5276 C   0  0  0  0  0  0  0  0  0  0  0  0
   55.6364  154.9836   -4.7522 C   0  0  0  0  0  0  0  0  0  0  0  0
   56.5995  157.0993   -5.6761 C   0  0  0  0  0  0  0  0  0  0  0  0
   54.3657  160.4387   -2.7724 C   0  0  0  0  0  0  0  0  0  0  0  0
   57.6805  156.1456   -6.1950 C   0  0  2  0  0  0  0  0  0  0  0  0
   54.4167  158.5112   -4.2870 C   0  0  1  0  0  0  0  0  0  0  0  0
   53.4926  158.4084   -5.4974 C   0  0  0  0  0  0  0  0  0  0  0  0
   58.6284  156.8567   -7.1577 C   0  0  0  0  0  0  0  0  0  0  0  0
   59.6746  155.9487   -7.5969 N   0  5  0  0  0  0  0  0  0  0  0  0
   55.6803  156.4480   -4.7316 N   0  0  0  0  0  0  0  0  0  0  0  0
   61.8558  157.2658   -7.4773 N   0  0  0  0  0  0  0  0  0  0  0  0
   53.6525  159.1772   -3.1558 N   0  3  0  0  0  0  0  0  0  0  0  0
   54.4936  156.7144   -2.7494 O   0  0  0  0  0  0  0  0  0  0  0  0
   61.4584  155.7391   -9.4511 O   0  0  0  0  0  0  0  0  0  0  0  0
   60.1791  157.8405   -9.2777 O   0  0  0  0  0  0  0  0  0  0  0  0
   60.6902  156.6489   -8.6056 S   0  0  0  0  0  0  0  0  0  0  0  0
   54.8985  154.7614   -6.7711 H   0  0  0  0  0  0  0  0  0  0  0  0
   55.7472  153.3442   -6.1485 H   0  0  0  0  0  0  0  0  0  0  0  0
   56.0065  161.4273   -3.7623 H   0  0  0  0  0  0  0  0  0  0  0  0
   54.5374  161.3322   -4.7483 H   0  0  0  0  0  0  0  0  0  0  0  0
   57.7839  154.0733   -6.8525 H   0  0  0  0  0  0  0  0  0  0  0  0
   56.8442  155.1156   -7.9194 H   0  0  0  0  0  0  0  0  0  0  0  0
   55.8414  159.5118   -5.6008 H   0  0  0  0  0  0  0  0  0  0  0  0
   56.5236  159.1126   -4.0147 H   0  0  0  0  0  0  0  0  0  0  0  0
   54.6772  154.6800   -4.3108 H   0  0  0  0  0  0  0  0  0  0  0  0
   56.4287  154.5614   -4.1222 H   0  0  0  0  0  0  0  0  0  0  0  0
   57.0739  157.9849   -5.2277 H   0  0  0  0  0  0  0  0  0  0  0  0
   55.9809  157.4778   -6.5097 H   0  0  0  0  0  0  0  0  0  0  0  0
   54.9878  160.2383   -1.8987 H   0  0  0  0  0  0  0  0  0  0  0  0
   53.5968  161.1805   -2.5420 H   0  0  0  0  0  0  0  0  0  0  0  0
   58.2773  155.8006   -5.3291 H   0  0  0  0  0  0  0  0  0  0  0  0
   53.1755  159.4032   -5.8132 H   0  0  0  0  0  0  0  0  0  0  0  0
   52.6086  157.8208   -5.2458 H   0  0  0  0  0  0  0  0  0  0  0  0
   54.0121  157.9251   -6.3262 H   0  0  0  0  0  0  0  0  0  0  0  0
   59.0493  157.7304   -6.6507 H   0  0  0  0  0  0  0  0  0  0  0  0
   58.0472  157.2311   -8.0060 H   0  0  0  0  0  0  0  0  0  0  0  0
   62.7875  156.8325   -7.5100 H   0  0  0  0  0  0  0  0  0  0  0  0
   61.9012  158.2894   -7.3911 H   0  0  0  0  0  0  0  0  0  0  0  0
   53.5804  158.5480   -2.3446 H   0  0  0  0  0  0  0  0  0  0  0  0
   52.6847  159.3922   -3.4319 H   0  0  0  0  0  0  0  0  0  0  0  0
  1 10  1  0  0  0  0
  1 14  1  0  0  0  0
  1 17  2  0  0  0  0
  2  4  1  0  0  0  0
  2  6  1  0  0  0  0
  3  5  1  0  0  0  0
  3  8  1  0  0  0  0
  4  9  1  0  0  0  0
  5 10  1  0  0  0  0
  6 14  1  0  0  0  0
  7  9  1  0  0  0  0
  7 14  1  0  0  0  0
  8 16  1  0  0  0  0
  9 12  1  0  0  0  0
 10 11  1  0  0  0  0
 10 16  1  0  0  0  0
 12 13  1  0  0  0  0
 13 20  1  0  0  0  0
 15 20  1  0  0  0  0
 18 20  2  0  0  0  0
 19 20  2  0  0  0  0
  2 21  1  0  0  0  0
  2 22  1  0  0  0  0
  3 23  1  0  0  0  0
  3 24  1  0  0  0  0
  4 25  1  0  0  0  0
  4 26  1  0  0  0  0
  5 27  1  0  0  0  0
  5 28  1  0  0  0  0
  6 29  1  0  0  0  0
  6 30  1  0  0  0  0
  7 31  1  0  0  0  0
  7 32  1  0  0  0  0
  8 33  1  0  0  0  0
  8 34  1  0  0  0  0
  9 35  1  0  0  0  0
 11 36  1  0  0  0  0
 11 37  1  0  0  0  0
 11 38  1  0  0  0  0
 12 39  1  0  0  0  0
 12 40  1  0  0  0  0
 15 41  1  0  0  0  0
 15 42  1  0  0  0  0
 16 43  1  0  0  0  0
 16 44  1  0  0  0  0
M  CHG  2  13  -1  16   1
M  END
> <FRED Chemgauss4 score>
-4.523369

$$$$
C97640698	P154806939
  -OEChem-05122015083D

 25 25  0     1  0  0  0  0  0999 V2000
   53.2661  156.2674   -3.6975 C   0  0  0  0  0  0  0  0  0  0  0  0
   55.0137  157.1902   -2.9070 C   0  0  0  0  0  0  0  0  0  0  0  0
   54.2401  156.0875   -4.6512 C   0  0  0  0  0  0  0  0  0  0  0  0
   55.2009  153.5405   -7.4285 C   0  0  0  0  0  0  0  0  0  0  0  0
   56.6570  156.7731   -4.7456 C   0  0  0  0  0  0  0  0  0  0  0  0
   55.2114  154.2384   -6.0740 C   0  0  0  0  0  0  0  0  0  0  0  0
   54.2112  155.4050   -6.0038 C   0  0  2  0  0  0  0  0  0  0  0  0
   53.7540  156.9547   -2.6144 N   0  0  0  0  0  0  0  0  0  0  0  0
   55.3537  156.6844   -4.1308 N   0  0  0  0  0  0  0  0  0  0  0  0
   53.4051  157.3442   -7.0312 N   0  0  0  0  0  0  0  0  0  0  0  0
   54.4442  156.3607   -7.0634 N   0  0  0  0  0  0  0  0  0  0  0  0
   52.2377  155.9378   -3.7334 H   0  0  0  0  0  0  0  0  0  0  0  0
   55.7199  157.7163   -2.2792 H   0  0  0  0  0  0  0  0  0  0  0  0
   55.4114  154.2487   -8.2362 H   0  0  0  0  0  0  0  0  0  0  0  0
   55.9677  152.7596   -7.4551 H   0  0  0  0  0  0  0  0  0  0  0  0
   54.2341  153.0679   -7.6269 H   0  0  0  0  0  0  0  0  0  0  0  0
   57.2335  155.8953   -4.4423 H   0  0  0  0  0  0  0  0  0  0  0  0
   56.5455  156.8002   -5.8332 H   0  0  0  0  0  0  0  0  0  0  0  0
   57.1516  157.6902   -4.4134 H   0  0  0  0  0  0  0  0  0  0  0  0
   54.9969  153.4954   -5.2956 H   0  0  0  0  0  0  0  0  0  0  0  0
   56.2266  154.6105   -5.8858 H   0  0  0  0  0  0  0  0  0  0  0  0
   53.2034  155.0102   -6.1831 H   0  0  0  0  0  0  0  0  0  0  0  0
   52.7844  157.1538   -6.2450 H   0  0  0  0  0  0  0  0  0  0  0  0
   53.8153  158.2589   -6.8468 H   0  0  0  0  0  0  0  0  0  0  0  0
   54.4227  155.8905   -7.9715 H   0  0  0  0  0  0  0  0  0  0  0  0
  1  3  2  0  0  0  0
  1  8  1  0  0  0  0
  2  8  2  0  0  0  0
  2  9  1  0  0  0  0
  3  7  1  0  0  0  0
  3  9  1  0  0  0  0
  4  6  1  0  0  0  0
  5  9  1  0  0  0  0
  6  7  1  0  0  0  0
  7 11  1  0  0  0  0
 10 11  1  0  0  0  0
  1 12  1  0  0  0  0
  2 13  1  0  0  0  0
  4 14  1  0  0  0  0
  4 15  1  0  0  0  0
  4 16  1  0  0  0  0
  5 17  1  0  0  0  0
  5 18  1  0  0  0  0
  5 19  1  0  0  0  0
  6 20  1  0  0  0  0
  6 21  1  0  0  0  0
  7 22  1  0  0  0  0
 10 23  1  0  0  0  0
 10 24  1  0  0  0  0
 11 25  1  0  0  0  0
M  END
> <FRED Chemgauss4 score>
-4.508043

$$$$
C90433636	P141417536
  -OEChem-05122015083D

 37 38  0     1  0  0  0  0  0999 V2000
   56.7552  163.0244   -1.8394 C   0  0  0  0  0  0  0  0  0  0  0  0
   57.4682  161.9974   -1.2209 C   0  0  0  0  0  0  0  0  0  0  0  0
   55.6504  161.4061   -3.2529 C   0  0  0  0  0  0  0  0  0  0  0  0
   56.3635  160.3791   -2.6344 C   0  0  0  0  0  0  0  0  0  0  0  0
   55.8462  162.7287   -2.8554 C   0  0  0  0  0  0  0  0  0  0  0  0
   57.2724  160.6748   -1.6184 C   0  0  0  0  0  0  0  0  0  0  0  0
   54.9699  158.5120   -3.5810 C   0  0  0  0  0  0  0  0  0  0  0  0
   55.4549  156.2678   -2.6535 C   0  0  0  0  0  0  0  0  0  0  0  0
   53.1611  156.0787   -3.0673 C   0  0  0  0  0  0  0  0  0  0  0  0
   55.1421  157.0562   -3.9139 C   0  0  1  0  0  0  0  0  0  0  0  0
   53.8573  156.3946   -4.3790 C   0  0  2  0  0  0  0  0  0  0  0  0
   53.7589  157.4665   -6.5244 C   0  0  0  0  0  0  0  0  0  0  0  0
   53.5653  164.0898   -2.6320 N   0  0  0  0  0  0  0  0  0  0  0  0
   56.1410  159.0483   -3.0610 N   0  0  0  0  0  0  0  0  0  0  0  0
   53.0425  157.1821   -5.2862 N   0  0  0  0  0  0  0  0  0  0  0  0
   53.9000  159.0791   -3.7777 O   0  0  0  0  0  0  0  0  0  0  0  0
   55.7053  165.2517   -3.4783 O   0  0  0  0  0  0  0  0  0  0  0  0
   54.5512  163.5671   -4.9540 O   0  0  0  0  0  0  0  0  0  0  0  0
   54.2006  155.8165   -2.1120 O   0  0  0  0  0  0  0  0  0  0  0  0
   54.9520  164.0144   -3.6274 S   0  0  0  0  0  0  0  0  0  0  0  0
   58.1764  159.4339   -0.8260 Cl  0  0  0  0  0  0  0  0  0  0  0  0
   56.9146  164.0510   -1.5212 H   0  0  0  0  0  0  0  0  0  0  0  0
   58.1726  162.2450   -0.4304 H   0  0  0  0  0  0  0  0  0  0  0  0
   54.9404  161.1784   -4.0451 H   0  0  0  0  0  0  0  0  0  0  0  0
   56.0463  155.3760   -2.8874 H   0  0  0  0  0  0  0  0  0  0  0  0
   55.9847  156.8450   -1.8894 H   0  0  0  0  0  0  0  0  0  0  0  0
   52.5731  156.9236   -2.6906 H   0  0  0  0  0  0  0  0  0  0  0  0
   52.5021  155.2080   -3.1395 H   0  0  0  0  0  0  0  0  0  0  0  0
   55.9463  156.9880   -4.6538 H   0  0  0  0  0  0  0  0  0  0  0  0
   54.1179  155.4478   -4.8704 H   0  0  0  0  0  0  0  0  0  0  0  0
   54.6792  158.0153   -6.3084 H   0  0  0  0  0  0  0  0  0  0  0  0
   53.1370  158.0705   -7.1907 H   0  0  0  0  0  0  0  0  0  0  0  0
   54.0164  156.5345   -7.0346 H   0  0  0  0  0  0  0  0  0  0  0  0
   53.4632  164.8999   -2.0085 H   0  0  0  0  0  0  0  0  0  0  0  0
   52.6766  163.7474   -3.0169 H   0  0  0  0  0  0  0  0  0  0  0  0
   56.9391  158.4228   -2.9718 H   0  0  0  0  0  0  0  0  0  0  0  0
   52.1870  156.6699   -5.5078 H   0  0  0  0  0  0  0  0  0  0  0  0
  1  2  2  0  0  0  0
  1  5  1  0  0  0  0
  2  6  1  0  0  0  0
  3  4  1  0  0  0  0
  3  5  2  0  0  0  0
  4  6  2  0  0  0  0
  4 14  1  0  0  0  0
  5 20  1  0  0  0  0
  6 21  1  0  0  0  0
  7 10  1  0  0  0  0
  7 14  1  0  0  0  0
  7 16  2  0  0  0  0
  8 10  1  0  0  0  0
  8 19  1  0  0  0  0
  9 11  1  0  0  0  0
  9 19  1  0  0  0  0
 10 11  1  0  0  0  0
 11 15  1  0  0  0  0
 12 15  1  0  0  0  0
 13 20  1  0  0  0  0
 17 20  2  0  0  0  0
 18 20  2  0  0  0  0
  1 22  1  0  0  0  0
  2 23  1  0  0  0  0
  3 24  1  0  0  0  0
  8 25  1  0  0  0  0
  8 26  1  0  0  0  0
  9 27  1  0  0  0  0
  9 28  1  0  0  0  0
 10 29  1  0  0  0  0
 11 30  1  0  0  0  0
 12 31  1  0  0  0  0
 12 32  1  0  0  0  0
 12 33  1  0  0  0  0
 13 34  1  0  0  0  0
 13 35  1  0  0  0  0
 14 36  1  0  0  0  0
 15 37  1  0  0  0  0
M  END
> <FRED Chemgauss4 score>
-4.496380

$$$$
C89190689	P139492315
  -OEChem-05122015083D

 36 37  0     1  0  0  0  0  0999 V2000
   58.2108  157.8952   -7.0990 C   0  0  0  0  0  0  0  0  0  0  0  0
   59.2195  156.9350   -7.1769 C   0  0  0  0  0  0  0  0  0  0  0  0
   56.9141  157.5180   -6.7497 C   0  0  0  0  0  0  0  0  0  0  0  0
   58.9315  155.5974   -6.9057 C   0  0  0  0  0  0  0  0  0  0  0  0
   56.1590  156.6892   -2.8003 C   0  0  0  0  0  0  0  0  0  0  0  0
   56.6261  156.1804   -6.4784 C   0  0  0  0  0  0  0  0  0  0  0  0
   57.6348  155.2201   -6.5564 C   0  0  0  0  0  0  0  0  0  0  0  0
   55.5231  157.5090   -1.8488 C   0  0  0  0  0  0  0  0  0  0  0  0
   55.1283  156.1330   -3.5179 C   0  0  0  0  0  0  0  0  0  0  0  0
   56.1588  158.3424   -0.8144 C   0  0  0  0  0  0  0  0  0  0  0  0
   54.5985  154.7937   -7.1097 C   0  0  0  0  0  0  0  0  0  0  0  0
   52.6281  156.3472   -3.3862 C   0  0  0  0  0  0  0  0  0  0  0  0
   55.1358  155.1627   -4.6803 C   0  0  0  0  0  0  0  0  0  0  0  0
   55.1838  155.8066   -6.0992 C   0  0  1  0  0  0  0  0  0  0  0  0
   54.1917  157.4794   -1.9503 N   0  0  0  0  0  0  0  0  0  0  0  0
   53.9824  156.6344   -2.9740 N   0  0  0  0  0  0  0  0  0  0  0  0
   54.2909  156.9626   -6.1372 N   0  0  0  0  0  0  0  0  0  0  0  0
   57.3164  153.5559   -6.2276 Cl  0  0  0  0  0  0  0  0  0  0  0  0
   58.4355  158.9369   -7.3095 H   0  0  0  0  0  0  0  0  0  0  0  0
   60.2292  157.2293   -7.4478 H   0  0  0  0  0  0  0  0  0  0  0  0
   56.1357  158.2743   -6.6915 H   0  0  0  0  0  0  0  0  0  0  0  0
   59.7291  154.8616   -6.9697 H   0  0  0  0  0  0  0  0  0  0  0  0
   57.2168  156.5234   -2.9456 H   0  0  0  0  0  0  0  0  0  0  0  0
   56.3663  159.3590   -1.1904 H   0  0  0  0  0  0  0  0  0  0  0  0
   55.5271  158.4438    0.0861 H   0  0  0  0  0  0  0  0  0  0  0  0
   57.1161  157.9156   -0.4649 H   0  0  0  0  0  0  0  0  0  0  0  0
   53.5700  154.5047   -6.8697 H   0  0  0  0  0  0  0  0  0  0  0  0
   54.6031  155.2024   -8.1277 H   0  0  0  0  0  0  0  0  0  0  0  0
   55.1929  153.8717   -7.1291 H   0  0  0  0  0  0  0  0  0  0  0  0
   52.2786  155.4819   -2.8169 H   0  0  0  0  0  0  0  0  0  0  0  0
   51.9951  157.2165   -3.1878 H   0  0  0  0  0  0  0  0  0  0  0  0
   52.6147  156.1317   -4.4582 H   0  0  0  0  0  0  0  0  0  0  0  0
   55.9959  154.4901   -4.5507 H   0  0  0  0  0  0  0  0  0  0  0  0
   54.2529  154.5139   -4.5929 H   0  0  0  0  0  0  0  0  0  0  0  0
   53.9055  157.2279   -7.0171 H   0  0  0  0  0  0  0  0  0  0  0  0
   54.2614  157.5578   -5.3384 H   0  0  0  0  0  0  0  0  0  0  0  0
  1  2  1  0  0  0  0
  1  3  2  0  0  0  0
  2  4  2  0  0  0  0
  3  6  1  0  0  0  0
  4  7  1  0  0  0  0
  5  8  1  0  0  0  0
  5  9  2  0  0  0  0
  6  7  2  0  0  0  0
  6 14  1  0  0  0  0
  7 18  1  0  0  0  0
  8 10  1  0  0  0  0
  8 15  2  0  0  0  0
  9 13  1  0  0  0  0
  9 16  1  0  0  0  0
 11 14  1  0  0  0  0
 12 16  1  0  0  0  0
 13 14  1  0  0  0  0
 14 17  1  0  0  0  0
 15 16  1  0  0  0  0
  1 19  1  0  0  0  0
  2 20  1  0  0  0  0
  3 21  1  0  0  0  0
  4 22  1  0  0  0  0
  5 23  1  0  0  0  0
 10 24  1  0  0  0  0
 10 25  1  0  0  0  0
 10 26  1  0  0  0  0
 11 27  1  0  0  0  0
 11 28  1  0  0  0  0
 11 29  1  0  0  0  0
 12 30  1  0  0  0  0
 12 31  1  0  0  0  0
 12 32  1  0  0  0  0
 13 33  1  0  0  0  0
 13 34  1  0  0  0  0
 17 35  1  0  0  0  0
 17 36  1  0  0  0  0
M  END
> <FRED Chemgauss4 score>
-4.492919

$$$$
C83917955	P131300722
  -OEChem-05122015083D

 28 27  0     1  0  0  0  0  0999 V2000
   57.7244  162.1601   -1.5894 C   0  0  0  0  0  0  0  0  0  0  0  0
   57.5850  159.1137   -1.0468 C   0  0  0  0  0  0  0  0  0  0  0  0
   55.3725  158.5945   -1.9981 C   0  0  0  0  0  0  0  0  0  0  0  0
   56.0482  162.8815   -3.3785 C   0  0  0  0  0  0  0  0  0  0  0  0
   55.0425  157.4345   -2.9195 C   0  0  0  0  0  0  0  0  0  0  0  0
   56.5294  161.7619   -2.4494 C   0  0  1  0  0  0  0  0  0  0  0  0
   55.6255  164.0677   -2.6429 N   0  0  0  0  0  0  0  0  0  0  0  0
   56.7503  159.0727   -2.2735 N   0  0  1  0  0  0  0  0  0  0  0  0
   58.3514  160.4449   -3.7788 O   0  0  0  0  0  0  0  0  0  0  0  0
   55.9422  160.2023   -4.4607 O   0  0  0  0  0  0  0  0  0  0  0  0
   53.7353  156.9568   -2.6279 O   0  0  0  0  0  0  0  0  0  0  0  0
   56.9490  160.3327   -3.4244 S   0  0  0  0  0  0  0  0  0  0  0  0
   58.5649  162.4911   -2.2092 H   0  0  0  0  0  0  0  0  0  0  0  0
   58.0644  161.3289   -0.9643 H   0  0  0  0  0  0  0  0  0  0  0  0
   57.4635  162.9882   -0.9211 H   0  0  0  0  0  0  0  0  0  0  0  0
   58.5900  159.4697   -1.2879 H   0  0  0  0  0  0  0  0  0  0  0  0
   57.6612  158.1151   -0.6080 H   0  0  0  0  0  0  0  0  0  0  0  0
   57.1404  159.7874   -0.3094 H   0  0  0  0  0  0  0  0  0  0  0  0
   54.6825  159.4306   -2.1499 H   0  0  0  0  0  0  0  0  0  0  0  0
   55.3246  158.2759   -0.9524 H   0  0  0  0  0  0  0  0  0  0  0  0
   56.8591  163.1699   -4.0574 H   0  0  0  0  0  0  0  0  0  0  0  0
   55.2215  162.5282   -4.0063 H   0  0  0  0  0  0  0  0  0  0  0  0
   55.7468  156.6131   -2.7549 H   0  0  0  0  0  0  0  0  0  0  0  0
   55.0816  157.7328   -3.9722 H   0  0  0  0  0  0  0  0  0  0  0  0
   55.7085  161.4368   -1.7992 H   0  0  0  0  0  0  0  0  0  0  0  0
   54.9738  164.6849   -3.0788 H   0  0  0  0  0  0  0  0  0  0  0  0
   56.1447  164.3285   -1.8316 H   0  0  0  0  0  0  0  0  0  0  0  0
   53.5650  156.2196   -3.2360 H   0  0  0  0  0  0  0  0  0  0  0  0
  1  6  1  0  0  0  0
  2  8  1  0  0  0  0
  3  5  1  0  0  0  0
  3  8  1  0  0  0  0
  4  6  1  0  0  0  0
  4  7  1  0  0  0  0
  5 11  1  0  0  0  0
  6 12  1  0  0  0  0
  8 12  1  0  0  0  0
  9 12  2  0  0  0  0
 10 12  2  0  0  0  0
  1 13  1  0  0  0  0
  1 14  1  0  0  0  0
  1 15  1  0  0  0  0
  2 16  1  0  0  0  0
  2 17  1  0  0  0  0
  2 18  1  0  0  0  0
  3 19  1  0  0  0  0
  3 20  1  0  0  0  0
  4 21  1  0  0  0  0
  4 22  1  0  0  0  0
  5 23  1  0  0  0  0
  5 24  1  0  0  0  0
  6 25  1  0  0  0  0
  7 26  1  0  0  0  0
  7 27  1  0  0  0  0
 11 28  1  0  0  0  0
M  END
> <FRED Chemgauss4 score>
-4.489559

$$$$
C34874693	P90744606
  -OEChem-05122015083D

 15 14  0     1  0  0  0  0  0999 V2000
   54.3444  154.8757   -5.1938 C   0  0  0  0  0  0  0  0  0  0  0  0
   54.8814  156.7386   -2.8541 C   0  0  0  0  0  0  0  0  0  0  0  0
   53.3250  155.8456   -4.6214 C   0  0  2  0  0  0  0  0  0  0  0  0
   53.5396  156.0862   -3.1224 C   0  0  1  0  0  0  0  0  0  0  0  0
   51.9915  155.2963   -4.8609 N   0  0  0  0  0  0  0  0  0  0  0  0
   54.8926  153.9738   -4.5675 O   0  0  0  0  0  0  0  0  0  0  0  0
   55.6955  157.0222   -3.7270 O   0  0  0  0  0  0  0  0  0  0  0  0
   53.4186  154.8963   -2.3644 O   0  0  0  0  0  0  0  0  0  0  0  0
   54.5575  155.0025   -6.2697 H   0  0  0  0  0  0  0  0  0  0  0  0
   55.1134  156.9239   -1.7909 H   0  0  0  0  0  0  0  0  0  0  0  0
   53.4287  156.7862   -5.1745 H   0  0  0  0  0  0  0  0  0  0  0  0
   52.7863  156.7896   -2.7477 H   0  0  0  0  0  0  0  0  0  0  0  0
   51.8482  154.7609   -5.6887 H   0  0  0  0  0  0  0  0  0  0  0  0
   51.2379  155.6405   -4.3075 H   0  0  0  0  0  0  0  0  0  0  0  0
   53.4927  155.1459   -1.4275 H   0  0  0  0  0  0  0  0  0  0  0  0
  1  3  1  0  0  0  0
  1  6  2  0  0  0  0
  2  4  1  0  0  0  0
  2  7  2  0  0  0  0
  3  4  1  0  0  0  0
  3  5  1  0  0  0  0
  4  8  1  0  0  0  0
  1  9  1  0  0  0  0
  2 10  1  0  0  0  0
  3 11  1  0  0  0  0
  4 12  1  0  0  0  0
  5 13  1  0  0  0  0
  5 14  1  0  0  0  0
  8 15  1  0  0  0  0
M  END
> <FRED Chemgauss4 score>
-4.483934

$$$$
C54404494	P81861931
  -OEChem-05122015083D

 17 17  0     0  0  0  0  0  0999 V2000
   55.2033  157.5068   -2.8952 C   0  0  0  0  0  0  0  0  0  0  0  0
   53.6048  156.7729   -4.0192 C   0  0  0  0  0  0  0  0  0  0  0  0
   54.9202  156.3525   -6.1559 C   0  0  0  0  0  0  0  0  0  0  0  0
   54.9880  154.8380   -6.2991 C   0  0  0  0  0  0  0  0  0  0  0  0
   53.8676  157.2335   -2.8183 N   0  0  0  0  0  0  0  0  0  0  0  0
   55.7834  157.2443   -4.0683 N   0  0  0  0  0  0  0  0  0  0  0  0
   54.7394  156.7762   -4.7691 N   0  0  0  0  0  0  0  0  0  0  0  0
   52.4384  156.3356   -4.5440 N   0  0  0  0  0  0  0  0  0  0  0  0
   53.7667  154.2599   -5.8570 O   0  0  0  0  0  0  0  0  0  0  0  0
   55.7717  157.9097   -2.0705 H   0  0  0  0  0  0  0  0  0  0  0  0
   54.0902  156.7682   -6.7392 H   0  0  0  0  0  0  0  0  0  0  0  0
   55.8475  156.8137   -6.5149 H   0  0  0  0  0  0  0  0  0  0  0  0
   55.1234  154.5713   -7.3520 H   0  0  0  0  0  0  0  0  0  0  0  0
   55.8107  154.4101   -5.7172 H   0  0  0  0  0  0  0  0  0  0  0  0
   51.5753  156.2774   -3.9851 H   0  0  0  0  0  0  0  0  0  0  0  0
   52.3783  155.9519   -5.4978 H   0  0  0  0  0  0  0  0  0  0  0  0
   53.8562  153.2995   -5.9662 H   0  0  0  0  0  0  0  0  0  0  0  0
  1  5  1  0  0  0  0
  1  6  2  0  0  0  0
  2  5  2  0  0  0  0
  2  7  1  0  0  0  0
  2  8  1  0  0  0  0
  3  4  1  0  0  0  0
  3  7  1  0  0  0  0
  4  9  1  0  0  0  0
  6  7  1  0  0  0  0
  1 10  1  0  0  0  0
  3 11  1  0  0  0  0
  3 12  1  0  0  0  0
  4 13  1  0  0  0  0
  4 14  1  0  0  0  0
  8 15  1  0  0  0  0
  8 16  1  0  0  0  0
  9 17  1  0  0  0  0
M  END
> <FRED Chemgauss4 score>
-4.482853

$$$$
C85798264	P134352627
  -OEChem-05122015083D

 28 28  0     1  0  0  0  0  0999 V2000
   53.8404  155.7905   -5.6377 C   0  0  0  0  0  0  0  0  0  0  0  0
   55.4755  154.5694   -4.8189 C   0  0  0  0  0  0  0  0  0  0  0  0
   54.6188  155.5888   -4.4822 C   0  0  0  0  0  0  0  0  0  0  0  0
   55.8058  153.2104   -6.8981 C   0  0  0  0  0  0  0  0  0  0  0  0
   54.5094  159.9528   -2.1867 C   0  0  0  0  0  0  0  0  0  0  0  0
   55.9879  158.3045   -1.2543 C   0  0  0  0  0  0  0  0  0  0  0  0
   54.8020  157.8395   -3.2915 C   0  0  0  0  0  0  0  0  0  0  0  0
   54.5345  156.3320   -3.1603 C   0  0  1  0  0  0  0  0  0  0  0  0
   54.1731  154.9655   -6.6340 N   0  0  0  0  0  0  0  0  0  0  0  0
   55.1702  154.2356   -6.1056 N   0  0  0  0  0  0  0  0  0  0  0  0
   53.2298  156.1177   -2.5229 N   0  0  0  0  0  0  0  0  0  0  0  0
   54.7485  158.5223   -1.9993 N   0  0  0  0  0  0  0  0  0  0  0  0
   53.0446  156.5041   -5.7979 H   0  0  0  0  0  0  0  0  0  0  0  0
   56.2578  154.0664   -4.2667 H   0  0  0  0  0  0  0  0  0  0  0  0
   55.2623  152.2754   -6.7387 H   0  0  0  0  0  0  0  0  0  0  0  0
   55.7756  153.4950   -7.9535 H   0  0  0  0  0  0  0  0  0  0  0  0
   56.8484  153.1061   -6.5850 H   0  0  0  0  0  0  0  0  0  0  0  0
   53.5820  160.1089   -2.7439 H   0  0  0  0  0  0  0  0  0  0  0  0
   55.3348  160.4042   -2.7438 H   0  0  0  0  0  0  0  0  0  0  0  0
   54.4260  160.4522   -1.2177 H   0  0  0  0  0  0  0  0  0  0  0  0
   56.1609  157.2338   -1.1177 H   0  0  0  0  0  0  0  0  0  0  0  0
   55.9265  158.7793   -0.2714 H   0  0  0  0  0  0  0  0  0  0  0  0
   56.8353  158.7314   -1.7975 H   0  0  0  0  0  0  0  0  0  0  0  0
   55.8053  158.0190   -3.6945 H   0  0  0  0  0  0  0  0  0  0  0  0
   54.0852  158.3364   -3.9539 H   0  0  0  0  0  0  0  0  0  0  0  0
   55.2905  155.9150   -2.4820 H   0  0  0  0  0  0  0  0  0  0  0  0
   52.9341  156.7789   -1.8429 H   0  0  0  0  0  0  0  0  0  0  0  0
   52.7977  155.2311   -2.6426 H   0  0  0  0  0  0  0  0  0  0  0  0
  1  3  1  0  0  0  0
  1  9  2  0  0  0  0
  2  3  2  0  0  0  0
  2 10  1  0  0  0  0
  3  8  1  0  0  0  0
  4 10  1  0  0  0  0
  5 12  1  0  0  0  0
  6 12  1  0  0  0  0
  7  8  1  0  0  0  0
  7 12  1  0  0  0  0
  8 11  1  0  0  0  0
  9 10  1  0  0  0  0
  1 13  1  0  0  0  0
  2 14  1  0  0  0  0
  4 15  1  0  0  0  0
  4 16  1  0  0  0  0
  4 17  1  0  0  0  0
  5 18  1  0  0  0  0
  5 19  1  0  0  0  0
  5 20  1  0  0  0  0
  6 21  1  0  0  0  0
  6 22  1  0  0  0  0
  6 23  1  0  0  0  0
  7 24  1  0  0  0  0
  7 25  1  0  0  0  0
  8 26  1  0  0  0  0
 11 27  1  0  0  0  0
 11 28  1  0  0  0  0
M  END
> <FRED Chemgauss4 score>
-4.482506

$$$$
C01612596	P07653838
  -OEChem-05122015083D

 15 14  0     0  0  0  0  0  0999 V2000
   54.7079  154.4340   -5.5949 C   0  0  0  0  0  0  0  0  0  0  0  0
   54.5194  155.5672   -6.5868 C   0  0  0  0  0  0  0  0  0  0  0  0
   53.2663  155.1664   -3.8176 C   0  0  0  0  0  0  0  0  0  0  0  0
   54.6462  154.9666   -4.2146 N   0  0  0  0  0  0  0  0  0  0  0  0
   53.2388  156.1548   -6.3947 O   0  0  0  0  0  0  0  0  0  0  0  0
   53.1652  155.2379   -2.3997 O   0  0  0  0  0  0  0  0  0  0  0  0
   53.9261  153.6758   -5.7052 H   0  0  0  0  0  0  0  0  0  0  0  0
   55.6856  153.9634   -5.7356 H   0  0  0  0  0  0  0  0  0  0  0  0
   54.5638  155.1810   -7.6098 H   0  0  0  0  0  0  0  0  0  0  0  0
   55.2840  156.3412   -6.4638 H   0  0  0  0  0  0  0  0  0  0  0  0
   52.8665  156.1001   -4.2277 H   0  0  0  0  0  0  0  0  0  0  0  0
   52.6395  154.3330   -4.1516 H   0  0  0  0  0  0  0  0  0  0  0  0
   55.0911  154.2964   -3.6010 H   0  0  0  0  0  0  0  0  0  0  0  0
   53.1595  156.8709   -7.0452 H   0  0  0  0  0  0  0  0  0  0  0  0
   52.2258  155.3716   -2.1871 H   0  0  0  0  0  0  0  0  0  0  0  0
  1  2  1  0  0  0  0
  1  4  1  0  0  0  0
  2  5  1  0  0  0  0
  3  4  1  0  0  0  0
  3  6  1  0  0  0  0
  1  7  1  0  0  0  0
  1  8  1  0  0  0  0
  2  9  1  0  0  0  0
  2 10  1  0  0  0  0
  3 11  1  0  0  0  0
  3 12  1  0  0  0  0
  4 13  1  0  0  0  0
  5 14  1  0  0  0  0
  6 15  1  0  0  0  0
M  END
> <FRED Chemgauss4 score>
-4.480732

$$$$
C36778321	P54653683
  -OEChem-05122015083D

 15 15  0     0  0  0  0  0  0999 V2000
   54.0979  156.3574   -6.3091 C   0  0  0  0  0  0  0  0  0  0  0  0
   55.5573  156.1880   -4.6731 C   0  0  0  0  0  0  0  0  0  0  0  0
   54.2051  156.2096   -4.9132 C   0  0  0  0  0  0  0  0  0  0  0  0
   53.1747  156.1020   -3.9268 C   0  0  0  0  0  0  0  0  0  0  0  0
   55.2872  156.4250   -6.9134 N   0  0  0  0  0  0  0  0  0  0  0  0
   56.1545  156.3194   -5.8923 N   0  0  0  0  0  0  0  0  0  0  0  0
   50.9031  155.4113   -3.4471 N   0  0  0  0  0  0  0  0  0  0  0  0
   51.9407  155.5702   -4.3475 N   0  0  0  0  0  0  0  0  0  0  0  0
   53.3249  156.4310   -2.7253 O   0  0  0  0  0  0  0  0  0  0  0  0
   53.2047  156.4189   -6.9147 H   0  0  0  0  0  0  0  0  0  0  0  0
   56.1389  156.0926   -3.7669 H   0  0  0  0  0  0  0  0  0  0  0  0
   57.1452  156.3431   -6.0996 H   0  0  0  0  0  0  0  0  0  0  0  0
   50.3885  154.5799   -3.7347 H   0  0  0  0  0  0  0  0  0  0  0  0
   51.3257  155.1829   -2.5484 H   0  0  0  0  0  0  0  0  0  0  0  0
   51.8119  155.3020   -5.3172 H   0  0  0  0  0  0  0  0  0  0  0  0
  1  3  1  0  0  0  0
  1  5  2  0  0  0  0
  2  3  2  0  0  0  0
  2  6  1  0  0  0  0
  3  4  1  0  0  0  0
  4  8  1  0  0  0  0
  4  9  2  0  0  0  0
  5  6  1  0  0  0  0
  7  8  1  0  0  0  0
  1 10  1  0  0  0  0
  2 11  1  0  0  0  0
  6 12  1  0  0  0  0
  7 13  1  0  0  0  0
  7 14  1  0  0  0  0
  8 15  1  0  0  0  0
M  END
> <FRED Chemgauss4 score>
-4.478767

$$$$
C87513557	P136883589
  -OEChem-05122015083D

 26 27  0     0  0  0  0  0  0999 V2000
   56.5416  156.1487   -5.1284 C   0  0  0  0  0  0  0  0  0  0  0  0
   55.3599  155.8347   -4.4571 C   0  0  0  0  0  0  0  0  0  0  0  0
   55.2648  157.2363   -6.8673 C   0  0  0  0  0  0  0  0  0  0  0  0
   56.4940  156.8495   -6.3335 C   0  0  0  0  0  0  0  0  0  0  0  0
   54.1306  156.2215   -4.9909 C   0  0  0  0  0  0  0  0  0  0  0  0
   54.0831  156.9223   -6.1961 C   0  0  0  0  0  0  0  0  0  0  0  0
   57.7649  160.8163   -4.5483 C   0  0  0  0  0  0  0  0  0  0  0  0
   58.8080  159.1105   -5.4070 C   0  0  0  0  0  0  0  0  0  0  0  0
   56.6444  161.4867   -3.8665 C   0  0  0  0  0  0  0  0  0  0  0  0
   57.7575  157.1853   -7.0511 C   0  0  0  0  0  0  0  0  0  0  0  0
   57.6955  159.4561   -4.7971 N   0  0  0  0  0  0  0  0  0  0  0  0
   58.8315  161.5245   -4.9193 N   0  0  0  0  0  0  0  0  0  0  0  0
   52.9372  155.9027   -4.3103 N   0  0  0  0  0  0  0  0  0  0  0  0
   52.9071  157.2990   -6.7181 F   0  0  0  0  0  0  0  0  0  0  0  0
   59.8720  160.4351   -5.6482 S   0  0  0  0  0  0  0  0  0  0  0  0
   59.1530  157.4553   -5.9163 S   0  0  0  0  0  0  0  0  0  0  0  0
   57.4948  155.8433   -4.7050 H   0  0  0  0  0  0  0  0  0  0  0  0
   55.4085  155.2883   -3.5186 H   0  0  0  0  0  0  0  0  0  0  0  0
   55.2179  157.7825   -7.8056 H   0  0  0  0  0  0  0  0  0  0  0  0
   56.7804  161.4800   -2.7715 H   0  0  0  0  0  0  0  0  0  0  0  0
   56.5346  162.5396   -4.1816 H   0  0  0  0  0  0  0  0  0  0  0  0
   55.6751  161.0036   -4.0842 H   0  0  0  0  0  0  0  0  0  0  0  0
   58.0334  156.3854   -7.7541 H   0  0  0  0  0  0  0  0  0  0  0  0
   57.6296  158.0922   -7.6604 H   0  0  0  0  0  0  0  0  0  0  0  0
   52.9838  155.3593   -3.4722 H   0  0  0  0  0  0  0  0  0  0  0  0
   52.0599  156.1434   -4.7254 H   0  0  0  0  0  0  0  0  0  0  0  0
  1  2  2  0  0  0  0
  1  4  1  0  0  0  0
  2  5  1  0  0  0  0
  3  4  2  0  0  0  0
  3  6  1  0  0  0  0
  4 10  1  0  0  0  0
  5  6  2  0  0  0  0
  5 13  1  0  0  0  0
  6 14  1  0  0  0  0
  7  9  1  0  0  0  0
  7 11  1  0  0  0  0
  7 12  2  0  0  0  0
  8 11  2  0  0  0  0
  8 15  1  0  0  0  0
  8 16  1  0  0  0  0
 10 16  1  0  0  0  0
 12 15  1  0  0  0  0
  1 17  1  0  0  0  0
  2 18  1  0  0  0  0
  3 19  1  0  0  0  0
  9 20  1  0  0  0  0
  9 21  1  0  0  0  0
  9 22  1  0  0  0  0
 10 23  1  0  0  0  0
 10 24  1  0  0  0  0
 13 25  1  0  0  0  0
 13 26  1  0  0  0  0
M  END
> <FRED Chemgauss4 score>
-4.474998

$$$$
C43515613	P65814635
  -OEChem-05122015083D

 20 20  0     0  0  0  0  0  0999 V2000
   57.2781  155.3510   -6.4989 C   0  0  0  0  0  0  0  0  0  0  0  0
   55.9225  155.1218   -6.4866 C   0  0  0  0  0  0  0  0  0  0  0  0
   56.4980  156.6332   -4.9896 C   0  0  0  0  0  0  0  0  0  0  0  0
   54.0200  156.0841   -5.1044 C   0  0  0  0  0  0  0  0  0  0  0  0
   53.6199  155.8202   -3.8294 C   0  0  0  0  0  0  0  0  0  0  0  0
   53.1262  156.5289   -6.2358 C   0  0  0  0  0  0  0  0  0  0  0  0
   57.6301  156.2926   -5.5645 N   0  0  0  0  0  0  0  0  0  0  0  0
   55.4364  155.9499   -5.5145 N   0  0  0  0  0  0  0  0  0  0  0  0
   54.5164  155.4165   -2.8629 N   0  0  0  0  0  0  0  0  0  0  0  0
   52.2991  155.9312   -3.4583 N   0  0  0  0  0  0  0  0  0  0  0  0
   58.0182  154.8853   -7.1333 H   0  0  0  0  0  0  0  0  0  0  0  0
   55.2902  154.4631   -7.0668 H   0  0  0  0  0  0  0  0  0  0  0  0
   56.3915  157.3605   -4.1955 H   0  0  0  0  0  0  0  0  0  0  0  0
   53.0661  157.6223   -6.2664 H   0  0  0  0  0  0  0  0  0  0  0  0
   52.1116  156.1341   -6.1054 H   0  0  0  0  0  0  0  0  0  0  0  0
   53.4619  156.1842   -7.2167 H   0  0  0  0  0  0  0  0  0  0  0  0
   55.4925  155.3259   -3.1152 H   0  0  0  0  0  0  0  0  0  0  0  0
   54.2211  155.2299   -1.9139 H   0  0  0  0  0  0  0  0  0  0  0  0
   51.5801  156.1876   -4.1197 H   0  0  0  0  0  0  0  0  0  0  0  0
   52.0452  155.7041   -2.5050 H   0  0  0  0  0  0  0  0  0  0  0  0
  1  2  2  0  0  0  0
  1  7  1  0  0  0  0
  2  8  1  0  0  0  0
  3  7  2  0  0  0  0
  3  8  1  0  0  0  0
  4  5  2  0  0  0  0
  4  6  1  0  0  0  0
  4  8  1  0  0  0  0
  5  9  1  0  0  0  0
  5 10  1  0  0  0  0
  1 11  1  0  0  0  0
  2 12  1  0  0  0  0
  3 13  1  0  0  0  0
  6 14  1  0  0  0  0
  6 15  1  0  0  0  0
  6 16  1  0  0  0  0
  9 17  1  0  0  0  0
  9 18  1  0  0  0  0
 10 19  1  0  0  0  0
 10 20  1  0  0  0  0
M  END
> <FRED Chemgauss4 score>
-4.474605

$$$$
C31319449	P46145132
  -OEChem-05122015083D

 22 22  0     0  0  0  0  0  0999 V2000
   54.4118  156.8233   -3.4209 C   0  0  0  0  0  0  0  0  0  0  0  0
   55.8984  156.6036   -5.4349 C   0  0  0  0  0  0  0  0  0  0  0  0
   56.4271  158.2655   -3.8374 C   0  0  0  0  0  0  0  0  0  0  0  0
   53.9146  155.1365   -5.1767 C   0  0  0  0  0  0  0  0  0  0  0  0
   55.0239  158.6259   -1.8236 C   0  0  0  0  0  0  0  0  0  0  0  0
   56.9576  157.1462   -4.5991 N   0  0  0  0  0  0  0  0  0  0  0  0
   54.7744  156.1673   -4.6123 N   0  0  0  0  0  0  0  0  0  0  0  0
   55.3039  157.8325   -3.0120 N   0  0  0  0  0  0  0  0  0  0  0  0
   53.4032  156.5235   -2.7753 O   0  0  0  0  0  0  0  0  0  0  0  0
   52.9907  155.7401   -6.0616 O   0  0  0  0  0  0  0  0  0  0  0  0
   54.2774  159.7680   -2.1967 O   0  0  0  0  0  0  0  0  0  0  0  0
   55.5334  157.3395   -6.1604 H   0  0  0  0  0  0  0  0  0  0  0  0
   56.2879  155.7431   -5.9890 H   0  0  0  0  0  0  0  0  0  0  0  0
   57.2153  158.6573   -3.1857 H   0  0  0  0  0  0  0  0  0  0  0  0
   56.0874  159.0785   -4.4895 H   0  0  0  0  0  0  0  0  0  0  0  0
   53.3807  154.6411   -4.3621 H   0  0  0  0  0  0  0  0  0  0  0  0
   54.5381  154.4220   -5.7196 H   0  0  0  0  0  0  0  0  0  0  0  0
   55.9725  158.9314   -1.3751 H   0  0  0  0  0  0  0  0  0  0  0  0
   54.4465  158.0152   -1.1254 H   0  0  0  0  0  0  0  0  0  0  0  0
   57.2736  156.4242   -3.9524 H   0  0  0  0  0  0  0  0  0  0  0  0
   53.5078  156.1794   -6.7581 H   0  0  0  0  0  0  0  0  0  0  0  0
   54.1069  160.2753   -1.3849 H   0  0  0  0  0  0  0  0  0  0  0  0
  1  7  1  0  0  0  0
  1  8  1  0  0  0  0
  1  9  2  0  0  0  0
  2  6  1  0  0  0  0
  2  7  1  0  0  0  0
  3  6  1  0  0  0  0
  3  8  1  0  0  0  0
  4  7  1  0  0  0  0
  4 10  1  0  0  0  0
  5  8  1  0  0  0  0
  5 11  1  0  0  0  0
  2 12  1  0  0  0  0
  2 13  1  0  0  0  0
  3 14  1  0  0  0  0
  3 15  1  0  0  0  0
  4 16  1  0  0  0  0
  4 17  1  0  0  0  0
  5 18  1  0  0  0  0
  5 19  1  0  0  0  0
  6 20  1  0  0  0  0
 10 21  1  0  0  0  0
 11 22  1  0  0  0  0
M  END
> <FRED Chemgauss4 score>
-4.472101

$$$$
C19168263	P28303153
  -OEChem-05122015083D

 20 20  0     1  0  0  0  0  0999 V2000
   55.7825  156.3154   -4.3298 C   0  0  0  0  0  0  0  0  0  0  0  0
   53.2131  155.8024   -3.7773 C   0  0  0  0  0  0  0  0  0  0  0  0
   55.0534  155.4978   -5.3982 C   0  0  2  0  0  0  0  0  0  0  0  0
   53.5627  155.8327   -5.2653 C   0  0  2  0  0  0  0  0  0  0  0  0
   54.5938  153.3717   -6.2227 N   0  0  0  0  0  0  0  0  0  0  0  0
   55.2728  154.0814   -5.1893 N   0  0  0  0  0  0  0  0  0  0  0  0
   55.0798  155.3879   -1.9620 O   0  0  0  0  0  0  0  0  0  0  0  0
   54.4799  157.7766   -2.5657 O   0  0  0  0  0  0  0  0  0  0  0  0
   53.3349  157.1402   -5.7863 O   0  0  0  0  0  0  0  0  0  0  0  0
   54.6750  156.3880   -2.9280 S   0  0  0  0  0  0  0  0  0  0  0  0
   56.7409  155.8902   -4.0201 H   0  0  0  0  0  0  0  0  0  0  0  0
   55.9404  157.3428   -4.6735 H   0  0  0  0  0  0  0  0  0  0  0  0
   52.3736  156.4525   -3.5192 H   0  0  0  0  0  0  0  0  0  0  0  0
   53.0258  154.7805   -3.4352 H   0  0  0  0  0  0  0  0  0  0  0  0
   55.4341  155.7767   -6.3884 H   0  0  0  0  0  0  0  0  0  0  0  0
   52.9253  155.1430   -5.8329 H   0  0  0  0  0  0  0  0  0  0  0  0
   53.8734  152.7779   -5.8127 H   0  0  0  0  0  0  0  0  0  0  0  0
   54.1001  154.0448   -6.8076 H   0  0  0  0  0  0  0  0  0  0  0  0
   56.2696  153.8861   -5.2429 H   0  0  0  0  0  0  0  0  0  0  0  0
   52.3944  157.3304   -5.6489 H   0  0  0  0  0  0  0  0  0  0  0  0
  1  3  1  0  0  0  0
  1 10  1  0  0  0  0
  2  4  1  0  0  0  0
  2 10  1  0  0  0  0
  3  4  1  0  0  0  0
  3  6  1  0  0  0  0
  4  9  1  0  0  0  0
  5  6  1  0  0  0  0
  7 10  2  0  0  0  0
  8 10  2  0  0  0  0
  1 11  1  0  0  0  0
  1 12  1  0  0  0  0
  2 13  1  0  0  0  0
  2 14  1  0  0  0  0
  3 15  1  0  0  0  0
  4 16  1  0  0  0  0
  5 17  1  0  0  0  0
  5 18  1  0  0  0  0
  6 19  1  0  0  0  0
  9 20  1  0  0  0  0
M  END
> <FRED Chemgauss4 score>
-4.470212

$$$$
C90697913	P141866415
  -OEChem-05122015083D

 19 19  0     1  0  0  0  0  0999 V2000
   55.8210  156.6835   -5.0887 C   0  0  2  0  0  0  0  0  0  0  0  0
   55.7120  155.7910   -6.3039 C   0  0  1  0  0  0  0  0  0  0  0  0
   55.3906  155.7140   -3.9930 C   0  0  1  0  0  0  0  0  0  0  0  0
   54.4547  154.9897   -6.0163 C   0  0  1  0  0  0  0  0  0  0  0  0
   54.8253  156.3462   -2.7346 C   0  0  0  0  0  0  0  0  0  0  0  0
   54.3878  154.8590   -4.5847 O   0  0  0  0  0  0  0  0  0  0  0  0
   54.9107  157.7687   -5.2170 O   0  0  0  0  0  0  0  0  0  0  0  0
   53.2885  155.6367   -6.5124 O   0  0  0  0  0  0  0  0  0  0  0  0
   53.6845  157.1102   -3.0841 O   0  0  0  0  0  0  0  0  0  0  0  0
   55.6182  156.5016   -7.4444 F   0  0  0  0  0  0  0  0  0  0  0  0
   56.8032  157.0293   -4.9489 H   0  0  0  0  0  0  0  0  0  0  0  0
   56.6205  155.1243   -6.4311 H   0  0  0  0  0  0  0  0  0  0  0  0
   56.2434  155.0755   -3.7074 H   0  0  0  0  0  0  0  0  0  0  0  0
   54.5179  153.9845   -6.4390 H   0  0  0  0  0  0  0  0  0  0  0  0
   55.5688  157.0007   -2.2775 H   0  0  0  0  0  0  0  0  0  0  0  0
   54.5340  155.5713   -2.0240 H   0  0  0  0  0  0  0  0  0  0  0  0
   55.0041  158.3238   -4.4217 H   0  0  0  0  0  0  0  0  0  0  0  0
   52.5308  155.0683   -6.2921 H   0  0  0  0  0  0  0  0  0  0  0  0
   53.3426  157.5031   -2.2632 H   0  0  0  0  0  0  0  0  0  0  0  0
  1  2  1  0  0  0  0
  1  3  1  0  0  0  0
  1  7  1  0  0  0  0
  2  4  1  0  0  0  0
  2 10  1  0  0  0  0
  3  5  1  0  0  0  0
  3  6  1  0  0  0  0
  4  6  1  0  0  0  0
  4  8  1  0  0  0  0
  5  9  1  0  0  0  0
  1 11  1  0  0  0  0
  2 12  1  0  0  0  0
  3 13  1  0  0  0  0
  4 14  1  0  0  0  0
  5 15  1  0  0  0  0
  5 16  1  0  0  0  0
  7 17  1  0  0  0  0
  8 18  1  0  0  0  0
  9 19  1  0  0  0  0
M  END
> <FRED Chemgauss4 score>
-4.466606

$$$$
C95636648	P150389150
  -OEChem-05122015083D

 20 21  0     1  0  0  0  0  0999 V2000
   56.7123  156.3312   -5.8211 C   0  0  0  0  0  0  0  0  0  0  0  0
   56.3490  156.7024   -4.5238 C   0  0  0  0  0  0  0  0  0  0  0  0
   55.8465  155.5602   -6.6145 C   0  0  0  0  0  0  0  0  0  0  0  0
   55.1216  156.2822   -4.0426 C   0  0  0  0  0  0  0  0  0  0  0  0
   54.2759  155.5141   -4.8305 C   0  0  0  0  0  0  0  0  0  0  0  0
   54.6083  155.1466   -6.1198 C   0  0  0  0  0  0  0  0  0  0  0  0
   53.3371  155.5277   -2.8189 C   0  0  0  0  0  0  0  0  0  0  0  0
   54.4643  156.5660   -2.7448 C   0  0  2  0  0  0  0  0  0  0  0  0
   53.9586  157.9118   -2.6808 N   0  0  0  0  0  0  0  0  0  0  0  0
   53.0969  155.1899   -4.2085 O   0  0  0  0  0  0  0  0  0  0  0  0
   53.7696  154.4048   -6.8850 O   0  0  0  0  0  0  0  0  0  0  0  0
   57.6708  156.6473   -6.2239 H   0  0  0  0  0  0  0  0  0  0  0  0
   57.0125  157.3098   -3.9180 H   0  0  0  0  0  0  0  0  0  0  0  0
   56.1496  155.2888   -7.6226 H   0  0  0  0  0  0  0  0  0  0  0  0
   53.6267  154.6028   -2.3021 H   0  0  0  0  0  0  0  0  0  0  0  0
   52.4001  155.8728   -2.3671 H   0  0  0  0  0  0  0  0  0  0  0  0
   55.1230  156.3580   -1.8903 H   0  0  0  0  0  0  0  0  0  0  0  0
   54.5320  158.6485   -3.0341 H   0  0  0  0  0  0  0  0  0  0  0  0
   53.1579  158.0882   -2.1112 H   0  0  0  0  0  0  0  0  0  0  0  0
   54.1632  154.2360   -7.7577 H   0  0  0  0  0  0  0  0  0  0  0  0
  1  2  1  0  0  0  0
  1  3  2  0  0  0  0
  2  4  2  0  0  0  0
  3  6  1  0  0  0  0
  4  5  1  0  0  0  0
  4  8  1  0  0  0  0
  5  6  2  0  0  0  0
  5 10  1  0  0  0  0
  6 11  1  0  0  0  0
  7  8  1  0  0  0  0
  7 10  1  0  0  0  0
  8  9  1  0  0  0  0
  1 12  1  0  0  0  0
  2 13  1  0  0  0  0
  3 14  1  0  0  0  0
  7 15  1  0  0  0  0
  7 16  1  0  0  0  0
  8 17  1  0  0  0  0
  9 18  1  0  0  0  0
  9 19  1  0  0  0  0
 11 20  1  0  0  0  0
M  END
> <FRED Chemgauss4 score>
-4.466043

$$$$
C09915899	P111277742
  -OEChem-05122015083D

 19 19  0     1  0  0  0  0  0999 V2000
   53.4022  155.4148   -4.3538 C   0  0  0  0  0  0  0  0  0  0  0  0
   53.8825  155.9646   -3.2342 C   0  0  0  0  0  0  0  0  0  0  0  0
   54.8501  157.0876   -3.3873 C   0  0  0  0  0  0  0  0  0  0  0  0
   55.3994  157.3656   -4.7801 C   0  0  0  0  0  0  0  0  0  0  0  0
   54.3890  157.0792   -5.8985 C   0  0  2  0  0  0  0  0  0  0  0  0
   53.3792  158.2150   -6.0581 C   0  0  0  0  0  0  0  0  0  0  0  0
   53.6835  155.8399   -5.6238 N   0  0  0  0  0  0  0  0  0  0  0  0
   55.2414  157.7109   -2.4028 O   0  0  0  0  0  0  0  0  0  0  0  0
   53.5308  155.5280   -1.9810 O   0  0  0  0  0  0  0  0  0  0  0  0
   52.6671  158.3628   -4.8423 O   0  0  0  0  0  0  0  0  0  0  0  0
   52.7483  154.5495   -4.3323 H   0  0  0  0  0  0  0  0  0  0  0  0
   55.7171  158.4199   -4.7944 H   0  0  0  0  0  0  0  0  0  0  0  0
   56.2967  156.7480   -4.9322 H   0  0  0  0  0  0  0  0  0  0  0  0
   54.9318  156.9554   -6.8481 H   0  0  0  0  0  0  0  0  0  0  0  0
   52.6763  157.9817   -6.8592 H   0  0  0  0  0  0  0  0  0  0  0  0
   53.8970  159.1478   -6.2861 H   0  0  0  0  0  0  0  0  0  0  0  0
   53.6090  155.1411   -6.3642 H   0  0  0  0  0  0  0  0  0  0  0  0
   53.9819  156.0505   -1.3066 H   0  0  0  0  0  0  0  0  0  0  0  0
   52.0335  159.0891   -4.9700 H   0  0  0  0  0  0  0  0  0  0  0  0
  1  2  2  0  0  0  0
  1  7  1  0  0  0  0
  2  3  1  0  0  0  0
  2  9  1  0  0  0  0
  3  4  1  0  0  0  0
  3  8  2  0  0  0  0
  4  5  1  0  0  0  0
  5  6  1  0  0  0  0
  5  7  1  0  0  0  0
  6 10  1  0  0  0  0
  1 11  1  0  0  0  0
  4 12  1  0  0  0  0
  4 13  1  0  0  0  0
  5 14  1  0  0  0  0
  6 15  1  0  0  0  0
  6 16  1  0  0  0  0
  7 17  1  0  0  0  0
  9 18  1  0  0  0  0
 10 19  1  0  0  0  0
M  END
> <FRED Chemgauss4 score>
-4.463421

$$$$
C75523971	P117554389
  -OEChem-05122015083D

 18 18  0     1  0  0  0  0  0999 V2000
   55.8502  156.6464   -5.5841 C   0  0  0  0  0  0  0  0  0  0  0  0
   53.7447  155.6080   -5.8719 C   0  0  0  0  0  0  0  0  0  0  0  0
   54.5775  156.7710   -6.3720 C   0  0  1  0  0  0  0  0  0  0  0  0
   54.3590  155.2325   -4.5388 C   0  0  2  0  0  0  0  0  0  0  0  0
   53.6545  155.8364   -3.3336 C   0  0  0  0  0  0  0  0  0  0  0  0
   54.0073  158.0793   -6.0952 N   0  0  0  0  0  0  0  0  0  0  0  0
   56.8712  157.2900   -5.7780 O   0  0  0  0  0  0  0  0  0  0  0  0
   55.7084  155.7146   -4.5943 O   0  0  0  0  0  0  0  0  0  0  0  0
   54.3123  155.4048   -2.1530 O   0  0  0  0  0  0  0  0  0  0  0  0
   52.6857  155.9170   -5.7321 H   0  0  0  0  0  0  0  0  0  0  0  0
   53.7203  154.7580   -6.5847 H   0  0  0  0  0  0  0  0  0  0  0  0
   54.8220  156.6774   -7.4361 H   0  0  0  0  0  0  0  0  0  0  0  0
   54.4065  154.1332   -4.4175 H   0  0  0  0  0  0  0  0  0  0  0  0
   52.6122  155.5092   -3.2984 H   0  0  0  0  0  0  0  0  0  0  0  0
   53.6888  156.9279   -3.3797 H   0  0  0  0  0  0  0  0  0  0  0  0
   53.0295  158.2194   -6.2592 H   0  0  0  0  0  0  0  0  0  0  0  0
   54.6290  158.8503   -5.9473 H   0  0  0  0  0  0  0  0  0  0  0  0
   53.8408  155.8057   -1.4040 H   0  0  0  0  0  0  0  0  0  0  0  0
  1  3  1  0  0  0  0
  1  7  2  0  0  0  0
  1  8  1  0  0  0  0
  2  3  1  0  0  0  0
  2  4  1  0  0  0  0
  3  6  1  0  0  0  0
  4  5  1  0  0  0  0
  4  8  1  0  0  0  0
  5  9  1  0  0  0  0
  2 10  1  0  0  0  0
  2 11  1  0  0  0  0
  3 12  1  0  0  0  0
  4 13  1  0  0  0  0
  5 14  1  0  0  0  0
  5 15  1  0  0  0  0
  6 16  1  0  0  0  0
  6 17  1  0  0  0  0
  9 18  1  0  0  0  0
M  END
> <FRED Chemgauss4 score>
-4.462543

$$$$
C95534816	P150162202
  -OEChem-05122015083D

 28 28  0     1  0  0  0  0  0999 V2000
   54.6265  157.0884   -3.4563 C   0  0  0  0  0  0  0  0  0  0  0  0
   55.6279  158.4461   -2.2270 C   0  0  0  0  0  0  0  0  0  0  0  0
   56.0908  159.3276   -1.1402 C   0  0  0  0  0  0  0  0  0  0  0  0
   54.2513  155.5821   -6.3415 C   0  0  0  0  0  0  0  0  0  0  0  0
   55.5516  154.5481   -4.4801 C   0  0  0  0  0  0  0  0  0  0  0  0
   57.4431  159.0425   -3.8740 C   0  0  0  0  0  0  0  0  0  0  0  0
   53.5950  156.0769   -3.9231 C   0  0  1  0  0  0  0  0  0  0  0  0
   54.1591  155.0272   -4.9143 C   0  0  0  0  0  0  0  0  0  0  0  0
   54.5826  157.6519   -2.2132 N   0  0  0  0  0  0  0  0  0  0  0  0
   55.6332  157.4840   -4.2383 N   0  0  0  0  0  0  0  0  0  0  0  0
   56.2584  158.3519   -3.4284 N   0  0  0  0  0  0  0  0  0  0  0  0
   53.0280  155.4538   -2.7464 N   0  0  0  0  0  0  0  0  0  0  0  0
   56.7998  158.8048   -0.4764 H   0  0  0  0  0  0  0  0  0  0  0  0
   56.5975  160.2304   -1.5242 H   0  0  0  0  0  0  0  0  0  0  0  0
   55.2558  159.6916   -0.5158 H   0  0  0  0  0  0  0  0  0  0  0  0
   54.8964  156.4665   -6.3815 H   0  0  0  0  0  0  0  0  0  0  0  0
   54.6657  154.8316   -7.0235 H   0  0  0  0  0  0  0  0  0  0  0  0
   53.2664  155.8602   -6.7290 H   0  0  0  0  0  0  0  0  0  0  0  0
   56.2619  155.3808   -4.4377 H   0  0  0  0  0  0  0  0  0  0  0  0
   55.9434  153.8055   -5.1836 H   0  0  0  0  0  0  0  0  0  0  0  0
   55.5210  154.0755   -3.4933 H   0  0  0  0  0  0  0  0  0  0  0  0
   58.3098  158.4314   -3.6084 H   0  0  0  0  0  0  0  0  0  0  0  0
   57.3947  159.1870   -4.9569 H   0  0  0  0  0  0  0  0  0  0  0  0
   57.4979  160.0189   -3.3846 H   0  0  0  0  0  0  0  0  0  0  0  0
   52.7578  156.5982   -4.4055 H   0  0  0  0  0  0  0  0  0  0  0  0
   53.5035  154.1468   -4.9347 H   0  0  0  0  0  0  0  0  0  0  0  0
   52.5686  154.5674   -2.8441 H   0  0  0  0  0  0  0  0  0  0  0  0
   52.9252  156.0022   -1.9126 H   0  0  0  0  0  0  0  0  0  0  0  0
  1  7  1  0  0  0  0
  1  9  1  0  0  0  0
  1 10  2  0  0  0  0
  2  3  1  0  0  0  0
  2  9  2  0  0  0  0
  2 11  1  0  0  0  0
  4  8  1  0  0  0  0
  5  8  1  0  0  0  0
  6 11  1  0  0  0  0
  7  8  1  0  0  0  0
  7 12  1  0  0  0  0
 10 11  1  0  0  0  0
  3 13  1  0  0  0  0
  3 14  1  0  0  0  0
  3 15  1  0  0  0  0
  4 16  1  0  0  0  0
  4 17  1  0  0  0  0
  4 18  1  0  0  0  0
  5 19  1  0  0  0  0
  5 20  1  0  0  0  0
  5 21  1  0  0  0  0
  6 22  1  0  0  0  0
  6 23  1  0  0  0  0
  6 24  1  0  0  0  0
  7 25  1  0  0  0  0
  8 26  1  0  0  0  0
 12 27  1  0  0  0  0
 12 28  1  0  0  0  0
M  END
> <FRED Chemgauss4 score>
-4.457613

$$$$
C31992616	P86628678
  -OEChem-05122015083D

 20 20  0     1  0  0  0  0  0999 V2000
   55.8111  156.3499   -4.3899 C   0  0  0  0  0  0  0  0  0  0  0  0
   53.7847  156.1777   -3.2965 C   0  0  0  0  0  0  0  0  0  0  0  0
   54.9987  155.3976   -5.2224 C   0  0  0  0  0  0  0  0  0  0  0  0
   53.6271  155.3797   -4.5641 C   0  0  2  0  0  0  0  0  0  0  0  0
   55.2331  158.9987   -2.5414 C   0  0  0  0  0  0  0  0  0  0  0  0
   55.5550  157.5741   -2.2421 C   0  0  0  0  0  0  0  0  0  0  0  0
   55.0627  156.6959   -3.2860 N   0  0  0  0  0  0  0  0  0  0  0  0
   52.6164  156.0372   -5.3434 N   0  0  0  0  0  0  0  0  0  0  0  0
   56.9449  156.7107   -4.6739 O   0  0  0  0  0  0  0  0  0  0  0  0
   52.8925  156.3687   -2.4812 O   0  0  0  0  0  0  0  0  0  0  0  0
   54.9793  155.7330   -6.2642 H   0  0  0  0  0  0  0  0  0  0  0  0
   55.4639  154.4069   -5.1808 H   0  0  0  0  0  0  0  0  0  0  0  0
   53.3242  154.3549   -4.3141 H   0  0  0  0  0  0  0  0  0  0  0  0
   55.6947  159.3140   -3.4834 H   0  0  0  0  0  0  0  0  0  0  0  0
   54.1498  159.1496   -2.6018 H   0  0  0  0  0  0  0  0  0  0  0  0
   55.6208  159.6427   -1.7430 H   0  0  0  0  0  0  0  0  0  0  0  0
   55.0911  157.2659   -1.3003 H   0  0  0  0  0  0  0  0  0  0  0  0
   56.6365  157.4283   -2.1664 H   0  0  0  0  0  0  0  0  0  0  0  0
   51.8487  156.4593   -4.8636 H   0  0  0  0  0  0  0  0  0  0  0  0
   52.6020  155.8790   -6.3297 H   0  0  0  0  0  0  0  0  0  0  0  0
  1  3  1  0  0  0  0
  1  7  1  0  0  0  0
  1  9  2  0  0  0  0
  2  4  1  0  0  0  0
  2  7  1  0  0  0  0
  2 10  2  0  0  0  0
  3  4  1  0  0  0  0
  4  8  1  0  0  0  0
  5  6  1  0  0  0  0
  6  7  1  0  0  0  0
  3 11  1  0  0  0  0
  3 12  1  0  0  0  0
  4 13  1  0  0  0  0
  5 14  1  0  0  0  0
  5 15  1  0  0  0  0
  5 16  1  0  0  0  0
  6 17  1  0  0  0  0
  6 18  1  0  0  0  0
  8 19  1  0  0  0  0
  8 20  1  0  0  0  0
M  END
> <FRED Chemgauss4 score>
-4.451644

$$$$
C82644253	P129155959
  -OEChem-05122015083D

 30 30  0     0  0  0  0  0  0999 V2000
   53.2679  157.0080   -4.3888 C   0  0  0  0  0  0  0  0  0  0  0  0
   54.6175  156.0676   -6.1255 C   0  0  0  0  0  0  0  0  0  0  0  0
   54.7822  155.2097   -3.9460 C   0  0  0  0  0  0  0  0  0  0  0  0
   53.6623  156.9902   -5.7232 C   0  0  0  0  0  0  0  0  0  0  0  0
   53.8313  156.1101   -3.4871 C   0  0  0  0  0  0  0  0  0  0  0  0
   53.0741  157.9397   -6.7028 C   0  0  0  0  0  0  0  0  0  0  0  0
   51.3378  160.7625   -6.9367 C   0  0  0  0  0  0  0  0  0  0  0  0
   51.0813  159.2999   -7.2813 C   0  0  0  0  0  0  0  0  0  0  0  0
   52.8125  161.1311   -7.0251 C   0  0  0  0  0  0  0  0  0  0  0  0
   55.1436  155.2143   -5.2364 N   0  3  0  0  0  0  0  0  0  0  0  0
   52.4756  162.8140   -4.9989 N   0  0  0  0  0  0  0  0  0  0  0  0
   51.7927  158.3974   -6.4182 N   0  0  0  0  0  0  0  0  0  0  0  0
   53.4809  156.1121   -2.2561 O   0  5  0  0  0  0  0  0  0  0  0  0
   53.7207  158.2505   -7.6997 O   0  0  0  0  0  0  0  0  0  0  0  0
   54.5091  163.0617   -6.5546 O   0  0  0  0  0  0  0  0  0  0  0  0
   52.2068  163.6421   -7.4195 O   0  0  0  0  0  0  0  0  0  0  0  0
   53.0769  162.8225   -6.5942 S   0  0  0  0  0  0  0  0  0  0  0  0
   52.5184  157.7296   -4.0652 H   0  0  0  0  0  0  0  0  0  0  0  0
   54.9884  155.9753   -7.1375 H   0  0  0  0  0  0  0  0  0  0  0  0
   55.2835  154.4697   -3.3345 H   0  0  0  0  0  0  0  0  0  0  0  0
   50.9780  160.9532   -5.9182 H   0  0  0  0  0  0  0  0  0  0  0  0
   50.7548  161.4120   -7.6016 H   0  0  0  0  0  0  0  0  0  0  0  0
   50.0156  159.0600   -7.2106 H   0  0  0  0  0  0  0  0  0  0  0  0
   51.4121  159.0909   -8.3034 H   0  0  0  0  0  0  0  0  0  0  0  0
   53.4144  160.5307   -6.3363 H   0  0  0  0  0  0  0  0  0  0  0  0
   53.2016  161.0014   -8.0392 H   0  0  0  0  0  0  0  0  0  0  0  0
   55.8441  154.5445   -5.5532 H   0  0  0  0  0  0  0  0  0  0  0  0
   53.1536  162.9001   -4.2317 H   0  0  0  0  0  0  0  0  0  0  0  0
   51.5855  163.2952   -4.8208 H   0  0  0  0  0  0  0  0  0  0  0  0
   51.2993  158.0420   -5.6011 H   0  0  0  0  0  0  0  0  0  0  0  0
  1  4  1  0  0  0  0
  1  5  2  0  0  0  0
  2  4  2  0  0  0  0
  2 10  1  0  0  0  0
  3  5  1  0  0  0  0
  3 10  2  0  0  0  0
  4  6  1  0  0  0  0
  5 13  1  0  0  0  0
  6 12  1  0  0  0  0
  6 14  2  0  0  0  0
  7  8  1  0  0  0  0
  7  9  1  0  0  0  0
  8 12  1  0  0  0  0
  9 17  1  0  0  0  0
 11 17  1  0  0  0  0
 15 17  2  0  0  0  0
 16 17  2  0  0  0  0
  1 18  1  0  0  0  0
  2 19  1  0  0  0  0
  3 20  1  0  0  0  0
  7 21  1  0  0  0  0
  7 22  1  0  0  0  0
  8 23  1  0  0  0  0
  8 24  1  0  0  0  0
  9 25  1  0  0  0  0
  9 26  1  0  0  0  0
 10 27  1  0  0  0  0
 11 28  1  0  0  0  0
 11 29  1  0  0  0  0
 12 30  1  0  0  0  0
M  CHG  2  10   1  13  -1
M  END
> <FRED Chemgauss4 score>
-4.444991

$$$$
C87045598	P136260956
  -OEChem-05122015083D

 28 28  0     1  0  0  0  0  0999 V2000
   56.9835  154.7468   -6.6339 C   0  0  0  0  0  0  0  0  0  0  0  0
   54.7690  155.8795   -6.3361 C   0  0  0  0  0  0  0  0  0  0  0  0
   54.2572  155.1821   -5.0975 C   0  0  0  0  0  0  0  0  0  0  0  0
   56.2629  155.9397   -6.0878 C   0  0  1  0  0  0  0  0  0  0  0  0
   55.2131  155.6626   -4.0183 C   0  0  2  0  0  0  0  0  0  0  0  0
   59.2963  153.8263   -6.8573 C   0  0  0  0  0  0  0  0  0  0  0  0
   58.8819  156.2029   -7.3666 C   0  0  0  0  0  0  0  0  0  0  0  0
   54.7489  156.9447   -3.3398 C   0  0  0  0  0  0  0  0  0  0  0  0
   53.4738  156.7457   -2.7289 N   0  0  0  0  0  0  0  0  0  0  0  0
   58.3341  154.9177   -6.9403 N   0  0  0  0  0  0  0  0  0  0  0  0
   56.3671  153.6888   -6.7860 O   0  0  0  0  0  0  0  0  0  0  0  0
   56.4666  155.9215   -4.6727 O   0  0  0  0  0  0  0  0  0  0  0  0
   54.5309  155.2851   -7.2280 H   0  0  0  0  0  0  0  0  0  0  0  0
   54.3275  156.8716   -6.4787 H   0  0  0  0  0  0  0  0  0  0  0  0
   53.2287  155.5160   -4.8882 H   0  0  0  0  0  0  0  0  0  0  0  0
   54.2385  154.0877   -5.1932 H   0  0  0  0  0  0  0  0  0  0  0  0
   56.7140  156.8526   -6.4914 H   0  0  0  0  0  0  0  0  0  0  0  0
   55.3797  154.8893   -3.2701 H   0  0  0  0  0  0  0  0  0  0  0  0
   59.3530  153.3019   -7.8147 H   0  0  0  0  0  0  0  0  0  0  0  0
   58.9951  153.1149   -6.0837 H   0  0  0  0  0  0  0  0  0  0  0  0
   60.2878  154.2147   -6.6095 H   0  0  0  0  0  0  0  0  0  0  0  0
   59.2141  156.7765   -6.4975 H   0  0  0  0  0  0  0  0  0  0  0  0
   58.1212  156.7800   -7.8994 H   0  0  0  0  0  0  0  0  0  0  0  0
   59.7347  156.0479   -8.0329 H   0  0  0  0  0  0  0  0  0  0  0  0
   54.6638  157.7323   -4.0821 H   0  0  0  0  0  0  0  0  0  0  0  0
   55.4640  157.2296   -2.5747 H   0  0  0  0  0  0  0  0  0  0  0  0
   52.7874  156.1548   -3.1819 H   0  0  0  0  0  0  0  0  0  0  0  0
   53.1848  157.3445   -1.9651 H   0  0  0  0  0  0  0  0  0  0  0  0
  1  4  1  0  0  0  0
  1 10  1  0  0  0  0
  1 11  2  0  0  0  0
  2  3  1  0  0  0  0
  2  4  1  0  0  0  0
  3  5  1  0  0  0  0
  4 12  1  0  0  0  0
  5  8  1  0  0  0  0
  5 12  1  0  0  0  0
  6 10  1  0  0  0  0
  7 10  1  0  0  0  0
  8  9  1  0  0  0  0
  2 13  1  0  0  0  0
  2 14  1  0  0  0  0
  3 15  1  0  0  0  0
  3 16  1  0  0  0  0
  4 17  1  0  0  0  0
  5 18  1  0  0  0  0
  6 19  1  0  0  0  0
  6 20  1  0  0  0  0
  6 21  1  0  0  0  0
  7 22  1  0  0  0  0
  7 23  1  0  0  0  0
  7 24  1  0  0  0  0
  8 25  1  0  0  0  0
  8 26  1  0  0  0  0
  9 27  1  0  0  0  0
  9 28  1  0  0  0  0
M  END
> <FRED Chemgauss4 score>
-4.443251

$$$$
C90727446	P141907749
  -OEChem-05122015083D

 21 21  0     1  0  0  0  0  0999 V2000
   55.2531  154.7410   -4.9571 C   0  0  0  0  0  0  0  0  0  0  0  0
   55.3195  155.0334   -6.4219 C   0  0  0  0  0  0  0  0  0  0  0  0
   55.5626  155.9656   -4.1353 C   0  0  2  0  0  0  0  0  0  0  0  0
   55.1721  156.5494   -6.4216 C   0  0  1  0  0  0  0  0  0  0  0  0
   54.4647  156.2884   -3.1385 C   0  0  0  0  0  0  0  0  0  0  0  0
   53.7214  156.9984   -6.5895 C   0  0  0  0  0  0  0  0  0  0  0  0
   55.7279  157.0283   -5.1412 N   0  0  0  0  0  0  0  0  0  0  0  0
   55.0204  153.6341   -4.4895 O   0  0  0  0  0  0  0  0  0  0  0  0
   54.8381  157.4421   -2.4023 O   0  0  0  0  0  0  0  0  0  0  0  0
   52.8875  156.1325   -5.8389 O   0  0  0  0  0  0  0  0  0  0  0  0
   56.2806  154.7172   -6.8406 H   0  0  0  0  0  0  0  0  0  0  0  0
   54.4881  154.5241   -6.9240 H   0  0  0  0  0  0  0  0  0  0  0  0
   56.5233  155.8030   -3.6133 H   0  0  0  0  0  0  0  0  0  0  0  0
   55.7659  156.9869   -7.2436 H   0  0  0  0  0  0  0  0  0  0  0  0
   54.3236  155.4554   -2.4453 H   0  0  0  0  0  0  0  0  0  0  0  0
   53.5249  156.4884   -3.6591 H   0  0  0  0  0  0  0  0  0  0  0  0
   53.4322  156.9507   -7.6408 H   0  0  0  0  0  0  0  0  0  0  0  0
   53.5986  158.0193   -6.2235 H   0  0  0  0  0  0  0  0  0  0  0  0
   55.1973  157.8604   -4.8423 H   0  0  0  0  0  0  0  0  0  0  0  0
   54.1182  157.6226   -1.7751 H   0  0  0  0  0  0  0  0  0  0  0  0
   51.9737  156.4398   -5.9631 H   0  0  0  0  0  0  0  0  0  0  0  0
  1  2  1  0  0  0  0
  1  3  1  0  0  0  0
  1  8  2  0  0  0  0
  2  4  1  0  0  0  0
  3  5  1  0  0  0  0
  3  7  1  0  0  0  0
  4  6  1  0  0  0  0
  4  7  1  0  0  0  0
  5  9  1  0  0  0  0
  6 10  1  0  0  0  0
  2 11  1  0  0  0  0
  2 12  1  0  0  0  0
  3 13  1  0  0  0  0
  4 14  1  0  0  0  0
  5 15  1  0  0  0  0
  5 16  1  0  0  0  0
  6 17  1  0  0  0  0
  6 18  1  0  0  0  0
  7 19  1  0  0  0  0
  9 20  1  0  0  0  0
 10 21  1  0  0  0  0
M  END
> <FRED Chemgauss4 score>
-4.438175

$$$$
C84132545	P131645543
  -OEChem-05122015083D

 28 29  0     1  0  0  0  0  0999 V2000
   58.4463  155.6835   -6.8982 C   0  0  0  0  0  0  0  0  0  0  0  0
   59.3785  156.6213   -7.3185 C   0  0  0  0  0  0  0  0  0  0  0  0
   58.5074  158.3661   -6.0318 C   0  0  0  0  0  0  0  0  0  0  0  0
   57.5260  157.5004   -5.5479 C   0  0  0  0  0  0  0  0  0  0  0  0
   57.5201  156.1823   -5.9927 C   0  0  0  0  0  0  0  0  0  0  0  0
   55.8803  156.5682   -4.5595 C   0  0  0  0  0  0  0  0  0  0  0  0
   55.2616  153.9888   -6.7613 C   0  0  0  0  0  0  0  0  0  0  0  0
   55.0446  155.8048   -2.2952 C   0  0  0  0  0  0  0  0  0  0  0  0
   56.0256  154.2345   -5.4716 C   0  0  0  0  0  0  0  0  0  0  0  0
   54.6988  156.2895   -3.7170 C   0  0  1  0  0  0  0  0  0  0  0  0
   59.4301  157.9159   -6.9180 N   0  0  0  0  0  0  0  0  0  0  0  0
   56.5011  157.7225   -4.6585 N   0  0  0  0  0  0  0  0  0  0  0  0
   56.4570  155.6085   -5.3445 N   0  0  0  0  0  0  0  0  0  0  0  0
   53.8033  157.4343   -3.5974 N   0  0  0  0  0  0  0  0  0  0  0  0
   58.4460  154.6596   -7.2467 H   0  0  0  0  0  0  0  0  0  0  0  0
   60.1514  156.3387   -8.0275 H   0  0  0  0  0  0  0  0  0  0  0  0
   58.5840  159.4052   -5.7377 H   0  0  0  0  0  0  0  0  0  0  0  0
   54.3708  154.6231   -6.8206 H   0  0  0  0  0  0  0  0  0  0  0  0
   54.9409  152.9440   -6.8191 H   0  0  0  0  0  0  0  0  0  0  0  0
   55.8835  154.2042   -7.6365 H   0  0  0  0  0  0  0  0  0  0  0  0
   55.6717  156.5421   -1.7821 H   0  0  0  0  0  0  0  0  0  0  0  0
   54.1446  155.6454   -1.6907 H   0  0  0  0  0  0  0  0  0  0  0  0
   55.5898  154.8545   -2.3174 H   0  0  0  0  0  0  0  0  0  0  0  0
   56.9146  153.5957   -5.4214 H   0  0  0  0  0  0  0  0  0  0  0  0
   55.4032  153.9945   -4.6021 H   0  0  0  0  0  0  0  0  0  0  0  0
   54.0676  155.4982   -4.1706 H   0  0  0  0  0  0  0  0  0  0  0  0
   53.2014  157.4806   -2.8028 H   0  0  0  0  0  0  0  0  0  0  0  0
   53.6745  158.0171   -4.3972 H   0  0  0  0  0  0  0  0  0  0  0  0
  1  2  2  0  0  0  0
  1  5  1  0  0  0  0
  2 11  1  0  0  0  0
  3  4  1  0  0  0  0
  3 11  2  0  0  0  0
  4  5  2  0  0  0  0
  4 12  1  0  0  0  0
  5 13  1  0  0  0  0
  6 10  1  0  0  0  0
  6 12  2  0  0  0  0
  6 13  1  0  0  0  0
  7  9  1  0  0  0  0
  8 10  1  0  0  0  0
  9 13  1  0  0  0  0
 10 14  1  0  0  0  0
  1 15  1  0  0  0  0
  2 16  1  0  0  0  0
  3 17  1  0  0  0  0
  7 18  1  0  0  0  0
  7 19  1  0  0  0  0
  7 20  1  0  0  0  0
  8 21  1  0  0  0  0
  8 22  1  0  0  0  0
  8 23  1  0  0  0  0
  9 24  1  0  0  0  0
  9 25  1  0  0  0  0
 10 26  1  0  0  0  0
 14 27  1  0  0  0  0
 14 28  1  0  0  0  0
M  END
> <FRED Chemgauss4 score>
-4.434188

$$$$
C20441619	P30506933
  -OEChem-05122015083D

 18 18  0     1  0  0  0  0  0999 V2000
   56.6692  158.7292   -3.2130 C   0  0  0  0  0  0  0  0  0  0  0  0
   55.5776  158.6964   -2.3694 C   0  0  0  0  0  0  0  0  0  0  0  0
   56.7594  157.6875   -4.1134 C   0  0  0  0  0  0  0  0  0  0  0  0
   54.8398  156.7665   -3.3170 C   0  0  0  0  0  0  0  0  0  0  0  0
   53.6653  155.0687   -4.7765 C   0  0  0  0  0  0  0  0  0  0  0  0
   53.8239  155.6765   -3.3748 C   0  0  2  0  0  0  0  0  0  0  0  0
   54.6401  157.7265   -2.3941 N   0  0  0  0  0  0  0  0  0  0  0  0
   55.8593  156.6855   -4.1932 N   0  0  0  0  0  0  0  0  0  0  0  0
   52.5281  156.1101   -2.8802 N   0  0  0  0  0  0  0  0  0  0  0  0
   57.4062  159.5199   -3.1711 H   0  0  0  0  0  0  0  0  0  0  0  0
   55.4221  159.4728   -1.6279 H   0  0  0  0  0  0  0  0  0  0  0  0
   57.5830  157.6278   -4.8169 H   0  0  0  0  0  0  0  0  0  0  0  0
   53.3780  155.8381   -5.5015 H   0  0  0  0  0  0  0  0  0  0  0  0
   54.6001  154.6112   -5.1197 H   0  0  0  0  0  0  0  0  0  0  0  0
   52.8989  154.2856   -4.7932 H   0  0  0  0  0  0  0  0  0  0  0  0
   54.1121  154.8498   -2.7014 H   0  0  0  0  0  0  0  0  0  0  0  0
   52.5015  156.7510   -2.1127 H   0  0  0  0  0  0  0  0  0  0  0  0
   51.7139  155.6100   -3.1764 H   0  0  0  0  0  0  0  0  0  0  0  0
  1  2  1  0  0  0  0
  1  3  2  0  0  0  0
  2  7  2  0  0  0  0
  3  8  1  0  0  0  0
  4  6  1  0  0  0  0
  4  7  1  0  0  0  0
  4  8  2  0  0  0  0
  5  6  1  0  0  0  0
  6  9  1  0  0  0  0
  1 10  1  0  0  0  0
  2 11  1  0  0  0  0
  3 12  1  0  0  0  0
  5 13  1  0  0  0  0
  5 14  1  0  0  0  0
  5 15  1  0  0  0  0
  6 16  1  0  0  0  0
  9 17  1  0  0  0  0
  9 18  1  0  0  0  0
M  END
> <FRED Chemgauss4 score>
-4.430093

$$$$
C40448205	P61401698
  -OEChem-05122015083D

 13 13  0     0  0  0  0  0  0999 V2000
   56.5280  158.1018   -3.0966 C   0  0  0  0  0  0  0  0  0  0  0  0
   54.7312  157.0771   -3.0669 C   0  0  0  0  0  0  0  0  0  0  0  0
   53.6722  156.1155   -3.4101 C   0  0  0  0  0  0  0  0  0  0  0  0
   55.9272  157.1215   -3.7223 N   0  0  0  0  0  0  0  0  0  0  0  0
   54.5732  157.9700   -2.0852 N   0  0  0  0  0  0  0  0  0  0  0  0
   51.7522  155.6868   -4.7647 N   0  0  0  0  0  0  0  0  0  0  0  0
   52.7620  156.5448   -4.3692 N   0  0  0  0  0  0  0  0  0  0  0  0
   53.6129  154.9958   -2.8977 O   0  0  0  0  0  0  0  0  0  0  0  0
   55.7894  158.6643   -2.1044 O   0  0  0  0  0  0  0  0  0  0  0  0
   57.5121  158.5103   -3.2660 H   0  0  0  0  0  0  0  0  0  0  0  0
   51.5745  155.8759   -5.7503 H   0  0  0  0  0  0  0  0  0  0  0  0
   52.1351  154.7432   -4.7247 H   0  0  0  0  0  0  0  0  0  0  0  0
   52.8374  157.4725   -4.7723 H   0  0  0  0  0  0  0  0  0  0  0  0
  1  4  2  0  0  0  0
  1  9  1  0  0  0  0
  2  3  1  0  0  0  0
  2  4  1  0  0  0  0
  2  5  2  0  0  0  0
  3  7  1  0  0  0  0
  3  8  2  0  0  0  0
  5  9  1  0  0  0  0
  6  7  1  0  0  0  0
  1 10  1  0  0  0  0
  6 11  1  0  0  0  0
  6 12  1  0  0  0  0
  7 13  1  0  0  0  0
M  END
> <FRED Chemgauss4 score>
-4.428957

$$$$
C50269940	P91555757
  -OEChem-05122015083D

 25 25  0     1  0  0  0  0  0999 V2000
   55.7150  154.6785   -6.0175 C   0  0  0  0  0  0  0  0  0  0  0  0
   56.0260  156.7459   -5.3362 C   0  0  0  0  0  0  0  0  0  0  0  0
   55.0607  155.7724   -5.4198 C   0  0  0  0  0  0  0  0  0  0  0  0
   58.4402  156.8421   -6.0002 C   0  0  0  0  0  0  0  0  0  0  0  0
   52.7293  157.4581   -6.5284 C   0  0  0  0  0  0  0  0  0  0  0  0
   53.3977  155.4066   -3.5179 C   0  0  0  0  0  0  0  0  0  0  0  0
   53.6126  155.8600   -4.9704 C   0  0  1  0  0  0  0  0  0  0  0  0
   56.9968  154.9327   -6.2941 N   0  0  0  0  0  0  0  0  0  0  0  0
   57.1556  156.1975   -5.8684 N   0  0  0  0  0  0  0  0  0  0  0  0
   54.1259  156.2235   -2.5823 N   0  0  0  0  0  0  0  0  0  0  0  0
   53.0938  157.2224   -5.1421 N   0  0  0  0  0  0  0  0  0  0  0  0
   55.3132  153.7061   -6.2647 H   0  0  0  0  0  0  0  0  0  0  0  0
   56.0054  157.7576   -4.9540 H   0  0  0  0  0  0  0  0  0  0  0  0
   59.0130  156.6418   -5.0909 H   0  0  0  0  0  0  0  0  0  0  0  0
   58.9601  156.4424   -6.8753 H   0  0  0  0  0  0  0  0  0  0  0  0
   58.2930  157.9177   -6.1315 H   0  0  0  0  0  0  0  0  0  0  0  0
   53.6042  157.3376   -7.1726 H   0  0  0  0  0  0  0  0  0  0  0  0
   52.3402  158.4727   -6.6495 H   0  0  0  0  0  0  0  0  0  0  0  0
   51.9601  156.7478   -6.8430 H   0  0  0  0  0  0  0  0  0  0  0  0
   52.3403  155.4881   -3.2415 H   0  0  0  0  0  0  0  0  0  0  0  0
   53.7042  154.3682   -3.3530 H   0  0  0  0  0  0  0  0  0  0  0  0
   53.0111  155.2083   -5.6176 H   0  0  0  0  0  0  0  0  0  0  0  0
   54.3718  155.8394   -1.6848 H   0  0  0  0  0  0  0  0  0  0  0  0
   54.1991  157.2136   -2.7503 H   0  0  0  0  0  0  0  0  0  0  0  0
   52.2770  157.3358   -4.5487 H   0  0  0  0  0  0  0  0  0  0  0  0
  1  3  1  0  0  0  0
  1  8  2  0  0  0  0
  2  3  2  0  0  0  0
  2  9  1  0  0  0  0
  3  7  1  0  0  0  0
  4  9  1  0  0  0  0
  5 11  1  0  0  0  0
  6  7  1  0  0  0  0
  6 10  1  0  0  0  0
  7 11  1  0  0  0  0
  8  9  1  0  0  0  0
  1 12  1  0  0  0  0
  2 13  1  0  0  0  0
  4 14  1  0  0  0  0
  4 15  1  0  0  0  0
  4 16  1  0  0  0  0
  5 17  1  0  0  0  0
  5 18  1  0  0  0  0
  5 19  1  0  0  0  0
  6 20  1  0  0  0  0
  6 21  1  0  0  0  0
  7 22  1  0  0  0  0
 10 23  1  0  0  0  0
 10 24  1  0  0  0  0
 11 25  1  0  0  0  0
M  END
> <FRED Chemgauss4 score>
-4.428624

$$$$
C85182506	P133303268
  -OEChem-05122015083D

 28 29  0     1  0  0  0  0  0999 V2000
   57.9007  155.0419   -6.1348 C   0  0  0  0  0  0  0  0  0  0  0  0
   57.6964  153.3374   -7.3932 C   0  0  0  0  0  0  0  0  0  0  0  0
   56.5565  154.7527   -6.1466 C   0  0  0  0  0  0  0  0  0  0  0  0
   53.9855  157.7602   -4.5211 C   0  0  0  0  0  0  0  0  0  0  0  0
   55.8028  156.0735   -4.1409 C   0  0  0  0  0  0  0  0  0  0  0  0
   53.6540  157.0186   -5.8119 C   0  0  0  0  0  0  0  0  0  0  0  0
   55.3787  155.4153   -5.4635 C   0  0  1  0  0  0  0  0  0  0  0  0
   54.6522  156.8479   -3.4845 C   0  0  2  0  0  0  0  0  0  0  0  0
   55.2260  152.9585   -7.3003 C   0  0  0  0  0  0  0  0  0  0  0  0
   58.6047  154.1573   -6.9130 N   0  0  0  0  0  0  0  0  0  0  0  0
   56.4410  153.6588   -6.9573 N   0  0  0  0  0  0  0  0  0  0  0  0
   53.6846  155.9234   -2.8892 N   0  0  0  0  0  0  0  0  0  0  0  0
   54.8180  156.3922   -6.3497 O   0  0  0  0  0  0  0  0  0  0  0  0
   58.3996  155.8414   -5.6063 H   0  0  0  0  0  0  0  0  0  0  0  0
   57.8860  152.5024   -8.0540 H   0  0  0  0  0  0  0  0  0  0  0  0
   54.6887  158.5693   -4.7576 H   0  0  0  0  0  0  0  0  0  0  0  0
   53.0842  158.2313   -4.1118 H   0  0  0  0  0  0  0  0  0  0  0  0
   56.2155  155.3248   -3.4524 H   0  0  0  0  0  0  0  0  0  0  0  0
   56.6126  156.7901   -4.3393 H   0  0  0  0  0  0  0  0  0  0  0  0
   52.8723  156.2659   -5.6586 H   0  0  0  0  0  0  0  0  0  0  0  0
   53.2836  157.7270   -6.5599 H   0  0  0  0  0  0  0  0  0  0  0  0
   54.6184  154.6277   -5.2728 H   0  0  0  0  0  0  0  0  0  0  0  0
   55.0654  157.4734   -2.6685 H   0  0  0  0  0  0  0  0  0  0  0  0
   55.0686  152.1722   -6.5573 H   0  0  0  0  0  0  0  0  0  0  0  0
   54.3877  153.6608   -7.2973 H   0  0  0  0  0  0  0  0  0  0  0  0
   55.3277  152.5266   -8.2999 H   0  0  0  0  0  0  0  0  0  0  0  0
   52.7597  156.2552   -2.7336 H   0  0  0  0  0  0  0  0  0  0  0  0
   54.0330  155.0853   -2.4815 H   0  0  0  0  0  0  0  0  0  0  0  0
  1  3  2  0  0  0  0
  1 10  1  0  0  0  0
  2 10  2  0  0  0  0
  2 11  1  0  0  0  0
  3  7  1  0  0  0  0
  3 11  1  0  0  0  0
  4  6  1  0  0  0  0
  4  8  1  0  0  0  0
  5  7  1  0  0  0  0
  5  8  1  0  0  0  0
  6 13  1  0  0  0  0
  7 13  1  0  0  0  0
  8 12  1  0  0  0  0
  9 11  1  0  0  0  0
  1 14  1  0  0  0  0
  2 15  1  0  0  0  0
  4 16  1  0  0  0  0
  4 17  1  0  0  0  0
  5 18  1  0  0  0  0
  5 19  1  0  0  0  0
  6 20  1  0  0  0  0
  6 21  1  0  0  0  0
  7 22  1  0  0  0  0
  8 23  1  0  0  0  0
  9 24  1  0  0  0  0
  9 25  1  0  0  0  0
  9 26  1  0  0  0  0
 12 27  1  0  0  0  0
 12 28  1  0  0  0  0
M  END
> <FRED Chemgauss4 score>
-4.415802

$$$$
C01236370	P12545962
  -OEChem-05122015083D

 14 14  0     0  0  0  0  0  0999 V2000
   53.5100  157.2201   -5.7895 C   0  0  0  0  0  0  0  0  0  0  0  0
   54.8251  157.1293   -6.0268 C   0  0  0  0  0  0  0  0  0  0  0  0
   55.7027  156.6703   -4.9056 C   0  0  0  0  0  0  0  0  0  0  0  0
   53.6706  156.4818   -3.4888 C   0  0  0  0  0  0  0  0  0  0  0  0
   52.9416  156.9152   -4.5838 N   0  0  0  0  0  0  0  0  0  0  0  0
   55.0438  156.3814   -3.7173 N   0  0  0  0  0  0  0  0  0  0  0  0
   55.4380  157.4211   -7.2083 N   0  0  0  0  0  0  0  0  0  0  0  0
   56.9189  156.5633   -5.0454 O   0  0  0  0  0  0  0  0  0  0  0  0
   53.1542  156.2085   -2.4050 O   0  0  0  0  0  0  0  0  0  0  0  0
   52.8111  157.5455   -6.5520 H   0  0  0  0  0  0  0  0  0  0  0  0
   51.9352  157.0112   -4.4863 H   0  0  0  0  0  0  0  0  0  0  0  0
   55.6169  156.0666   -2.9394 H   0  0  0  0  0  0  0  0  0  0  0  0
   54.8788  157.7302   -7.9743 H   0  0  0  0  0  0  0  0  0  0  0  0
   56.4280  157.3172   -7.2729 H   0  0  0  0  0  0  0  0  0  0  0  0
  1  2  2  0  0  0  0
  1  5  1  0  0  0  0
  2  3  1  0  0  0  0
  2  7  1  0  0  0  0
  3  6  1  0  0  0  0
  3  8  2  0  0  0  0
  4  5  1  0  0  0  0
  4  6  1  0  0  0  0
  4  9  2  0  0  0  0
  1 10  1  0  0  0  0
  5 11  1  0  0  0  0
  6 12  1  0  0  0  0
  7 13  1  0  0  0  0
  7 14  1  0  0  0  0
M  END
> <FRED Chemgauss4 score>
-4.401291

$$$$
C39059495	P151021494
  -OEChem-05122015083D

 18 19  0     1  0  0  0  0  0999 V2000
   56.7685  157.3854   -4.5557 C   0  0  0  0  0  0  0  0  0  0  0  0
   54.6958  156.6168   -3.3426 C   0  0  0  0  0  0  0  0  0  0  0  0
   53.0943  155.6580   -4.7010 C   0  0  0  0  0  0  0  0  0  0  0  0
   55.7505  156.2991   -4.3934 C   0  0  1  0  0  0  0  0  0  0  0  0
   55.2122  156.2722   -5.8223 C   0  0  1  0  0  0  0  0  0  0  0  0
   56.6505  158.1097   -5.6174 N   0  0  0  0  0  0  0  0  0  0  0  0
   53.4514  156.0462   -3.5072 N   0  0  0  0  0  0  0  0  0  0  0  0
   53.8673  155.7475   -5.8359 N   0  0  0  0  0  0  0  0  0  0  0  0
   55.5619  157.6301   -6.2642 N   0  0  0  0  0  0  0  0  0  0  0  0
   51.8636  155.0976   -4.9378 N   0  0  0  0  0  0  0  0  0  0  0  0
   54.9811  157.3002   -2.3603 O   0  0  0  0  0  0  0  0  0  0  0  0
   57.5488  157.5415   -3.7970 H   0  0  0  0  0  0  0  0  0  0  0  0
   56.2475  155.3621   -4.1220 H   0  0  0  0  0  0  0  0  0  0  0  0
   55.8338  155.5809   -6.4074 H   0  0  0  0  0  0  0  0  0  0  0  0
   53.4792  155.4767   -6.7343 H   0  0  0  0  0  0  0  0  0  0  0  0
   55.6703  157.6924   -7.2741 H   0  0  0  0  0  0  0  0  0  0  0  0
   51.2415  154.9921   -4.1715 H   0  0  0  0  0  0  0  0  0  0  0  0
   51.6453  154.8206   -5.8656 H   0  0  0  0  0  0  0  0  0  0  0  0
  1  4  1  0  0  0  0
  1  6  2  0  0  0  0
  2  4  1  0  0  0  0
  2  7  1  0  0  0  0
  2 11  2  0  0  0  0
  3  7  2  0  0  0  0
  3  8  1  0  0  0  0
  3 10  1  0  0  0  0
  4  5  1  0  0  0  0
  5  8  1  0  0  0  0
  5  9  1  0  0  0  0
  6  9  1  0  0  0  0
  1 12  1  0  0  0  0
  4 13  1  0  0  0  0
  5 14  1  0  0  0  0
  8 15  1  0  0  0  0
  9 16  1  0  0  0  0
 10 17  1  0  0  0  0
 10 18  1  0  0  0  0
M  END
> <FRED Chemgauss4 score>
-4.393931

$$$$
C16939872	P46811267
  -OEChem-05122015083D

 16 17  0     0  0  0  0  0  0999 V2000
   53.7954  157.1059   -6.3159 C   0  0  0  0  0  0  0  0  0  0  0  0
   55.8191  157.3967   -4.5598 C   0  0  0  0  0  0  0  0  0  0  0  0
   55.9790  157.1317   -5.8591 C   0  0  0  0  0  0  0  0  0  0  0  0
   54.4622  157.5461   -4.0181 C   0  0  0  0  0  0  0  0  0  0  0  0
   58.0765  157.2430   -4.9860 C   0  0  0  0  0  0  0  0  0  0  0  0
   57.1136  157.5038   -3.8315 C   0  0  0  0  0  0  0  0  0  0  0  0
   54.9941  156.9749   -6.7914 N   0  0  0  0  0  0  0  0  0  0  0  0
   53.4874  157.3793   -4.9936 N   0  0  0  0  0  0  0  0  0  0  0  0
   57.3080  157.0369   -6.1316 N   0  0  0  0  0  0  0  0  0  0  0  0
   54.2518  157.7898   -2.8364 O   0  0  0  0  0  0  0  0  0  0  0  0
   59.2947  157.2235   -4.8970 O   0  0  0  0  0  0  0  0  0  0  0  0
   52.9056  157.0045   -6.9559 H   0  0  0  0  0  0  0  0  0  0  0  0
   57.2777  158.5036   -3.4234 H   0  0  0  0  0  0  0  0  0  0  0  0
   57.2242  156.7309   -3.0676 H   0  0  0  0  0  0  0  0  0  0  0  0
   52.5118  157.4626   -4.7233 H   0  0  0  0  0  0  0  0  0  0  0  0
   57.6758  156.8407   -7.0547 H   0  0  0  0  0  0  0  0  0  0  0  0
  1  7  2  0  0  0  0
  1  8  1  0  0  0  0
  2  3  2  0  0  0  0
  2  4  1  0  0  0  0
  2  6  1  0  0  0  0
  3  7  1  0  0  0  0
  3  9  1  0  0  0  0
  4  8  1  0  0  0  0
  4 10  2  0  0  0  0
  5  6  1  0  0  0  0
  5  9  1  0  0  0  0
  5 11  2  0  0  0  0
  1 12  1  0  0  0  0
  6 13  1  0  0  0  0
  6 14  1  0  0  0  0
  8 15  1  0  0  0  0
  9 16  1  0  0  0  0
M  END
> <FRED Chemgauss4 score>
-4.392031

$$$$
C05501770	P85200389
  -OEChem-05122015083D

 17 16  0     0  0  0  0  0  0999 V2000
   55.5319  157.6714   -3.0440 C   0  0  0  0  0  0  0  0  0  0  0  0
   55.9705  157.3045   -4.4209 C   0  0  0  0  0  0  0  0  0  0  0  0
   55.6354  155.5338   -6.1770 C   0  0  0  0  0  0  0  0  0  0  0  0
   54.3239  154.7729   -6.2454 C   0  0  0  0  0  0  0  0  0  0  0  0
   56.5032  158.2081   -2.2437 N   0  0  0  0  0  0  0  0  0  0  0  0
   55.8596  155.9945   -4.8222 N   0  0  0  0  0  0  0  0  0  0  0  0
   53.2637  155.6201   -5.8208 O   0  0  0  0  0  0  0  0  0  0  0  0
   53.9533  157.3960   -2.6042 S   0  0  0  0  0  0  0  0  0  0  0  0
   56.6169  158.5190   -5.3631 S   0  0  0  0  0  0  0  0  0  0  0  0
   56.4783  154.8986   -6.4671 H   0  0  0  0  0  0  0  0  0  0  0  0
   55.6031  156.4083   -6.8338 H   0  0  0  0  0  0  0  0  0  0  0  0
   54.3560  153.9095   -5.5737 H   0  0  0  0  0  0  0  0  0  0  0  0
   54.1121  154.4264   -7.2622 H   0  0  0  0  0  0  0  0  0  0  0  0
   57.4552  158.3445   -2.5680 H   0  0  0  0  0  0  0  0  0  0  0  0
   56.3010  158.4882   -1.2898 H   0  0  0  0  0  0  0  0  0  0  0  0
   55.9420  155.2839   -4.1015 H   0  0  0  0  0  0  0  0  0  0  0  0
   52.4478  155.0975   -5.8796 H   0  0  0  0  0  0  0  0  0  0  0  0
  1  2  1  0  0  0  0
  1  5  1  0  0  0  0
  1  8  2  0  0  0  0
  2  6  1  0  0  0  0
  2  9  2  0  0  0  0
  3  4  1  0  0  0  0
  3  6  1  0  0  0  0
  4  7  1  0  0  0  0
  3 10  1  0  0  0  0
  3 11  1  0  0  0  0
  4 12  1  0  0  0  0
  4 13  1  0  0  0  0
  5 14  1  0  0  0  0
  5 15  1  0  0  0  0
  6 16  1  0  0  0  0
  7 17  1  0  0  0  0
M  END
> <FRED Chemgauss4 score>
-4.385322

$$$$
C59493440	P90563089
  -OEChem-05122015083D

 20 20  0     1  0  0  0  0  0999 V2000
   54.8764  158.4622   -4.1905 C   0  0  0  0  0  0  0  0  0  0  0  0
   54.7433  159.5588   -2.2217 C   0  0  0  0  0  0  0  0  0  0  0  0
   54.0277  157.6682   -3.2271 C   0  0  1  0  0  0  0  0  0  0  0  0
   53.8997  155.6022   -4.6570 C   0  0  0  0  0  0  0  0  0  0  0  0
   54.2639  156.1743   -3.2856 C   0  0  2  0  0  0  0  0  0  0  0  0
   52.5039  155.8450   -4.9437 N   0  0  0  0  0  0  0  0  0  0  0  0
   54.8542  159.7758   -3.6319 O   0  0  0  0  0  0  0  0  0  0  0  0
   54.4164  158.1913   -1.9548 O   0  0  0  0  0  0  0  0  0  0  0  0
   53.4476  155.5355   -2.3016 O   0  0  0  0  0  0  0  0  0  0  0  0
   55.9177  158.1211   -4.2103 H   0  0  0  0  0  0  0  0  0  0  0  0
   54.4807  158.4726   -5.2094 H   0  0  0  0  0  0  0  0  0  0  0  0
   55.6944  159.8006   -1.7381 H   0  0  0  0  0  0  0  0  0  0  0  0
   53.9596  160.2079   -1.8198 H   0  0  0  0  0  0  0  0  0  0  0  0
   52.9638  157.8956   -3.3674 H   0  0  0  0  0  0  0  0  0  0  0  0
   54.5036  156.0678   -5.4433 H   0  0  0  0  0  0  0  0  0  0  0  0
   54.0777  154.5222   -4.6813 H   0  0  0  0  0  0  0  0  0  0  0  0
   55.3122  155.9455   -3.0467 H   0  0  0  0  0  0  0  0  0  0  0  0
   52.0295  155.2384   -5.5879 H   0  0  0  0  0  0  0  0  0  0  0  0
   52.0965  156.7180   -4.6605 H   0  0  0  0  0  0  0  0  0  0  0  0
   53.7173  155.9001   -1.4458 H   0  0  0  0  0  0  0  0  0  0  0  0
  1  3  1  0  0  0  0
  1  7  1  0  0  0  0
  2  7  1  0  0  0  0
  2  8  1  0  0  0  0
  3  5  1  0  0  0  0
  3  8  1  0  0  0  0
  4  5  1  0  0  0  0
  4  6  1  0  0  0  0
  5  9  1  0  0  0  0
  1 10  1  0  0  0  0
  1 11  1  0  0  0  0
  2 12  1  0  0  0  0
  2 13  1  0  0  0  0
  3 14  1  0  0  0  0
  4 15  1  0  0  0  0
  4 16  1  0  0  0  0
  5 17  1  0  0  0  0
  6 18  1  0  0  0  0
  6 19  1  0  0  0  0
  9 20  1  0  0  0  0
M  END
> <FRED Chemgauss4 score>
-4.383861

$$$$
C58003917	P87342442
  -OEChem-05122015083D

 25 25  0     0  0  0  0  0  0999 V2000
   55.3982  156.7837   -4.6366 C   0  0  0  0  0  0  0  0  0  0  0  0
   56.4488  157.4510   -5.4301 C   0  0  0  0  0  0  0  0  0  0  0  0
   54.6740  157.3779   -3.6536 C   0  0  0  0  0  0  0  0  0  0  0  0
   59.2846  155.2717   -7.3775 C   0  0  0  0  0  0  0  0  0  0  0  0
   59.4674  156.7453   -7.0102 C   0  0  0  0  0  0  0  0  0  0  0  0
   58.1620  154.6383   -6.5540 C   0  0  0  0  0  0  0  0  0  0  0  0
   58.1680  157.5300   -7.1481 C   0  0  0  0  0  0  0  0  0  0  0  0
   56.8543  155.4097   -6.6879 C   0  0  0  0  0  0  0  0  0  0  0  0
   57.1071  156.8428   -6.3524 N   0  3  0  0  0  0  0  0  0  0  0  0
   53.7068  156.6762   -2.9594 N   0  0  0  0  0  0  0  0  0  0  0  0
   54.9668  159.0977   -3.2408 S   0  5  0  0  0  0  0  0  0  0  0  0
   55.2221  155.7388   -4.8893 H   0  0  0  0  0  0  0  0  0  0  0  0
   56.6966  158.5040   -5.2469 H   0  0  0  0  0  0  0  0  0  0  0  0
   59.0514  155.1849   -8.4458 H   0  0  0  0  0  0  0  0  0  0  0  0
   60.2208  154.7287   -7.2065 H   0  0  0  0  0  0  0  0  0  0  0  0
   59.8350  156.8150   -5.9781 H   0  0  0  0  0  0  0  0  0  0  0  0
   60.2350  157.1912   -7.6527 H   0  0  0  0  0  0  0  0  0  0  0  0
   58.0110  153.6016   -6.8754 H   0  0  0  0  0  0  0  0  0  0  0  0
   58.4660  154.6040   -5.4997 H   0  0  0  0  0  0  0  0  0  0  0  0
   58.2896  158.5558   -6.7848 H   0  0  0  0  0  0  0  0  0  0  0  0
   57.8236  157.5612   -8.1873 H   0  0  0  0  0  0  0  0  0  0  0  0
   56.4725  155.3810   -7.7141 H   0  0  0  0  0  0  0  0  0  0  0  0
   56.0909  155.0069   -6.0141 H   0  0  0  0  0  0  0  0  0  0  0  0
   53.5051  155.7063   -3.1550 H   0  0  0  0  0  0  0  0  0  0  0  0
   53.1920  157.1609   -2.2347 H   0  0  0  0  0  0  0  0  0  0  0  0
  1  2  1  0  0  0  0
  1  3  2  0  0  0  0
  2  9  2  0  0  0  0
  3 10  1  0  0  0  0
  3 11  1  0  0  0  0
  4  5  1  0  0  0  0
  4  6  1  0  0  0  0
  5  7  1  0  0  0  0
  6  8  1  0  0  0  0
  7  9  1  0  0  0  0
  8  9  1  0  0  0  0
  1 12  1  0  0  0  0
  2 13  1  0  0  0  0
  4 14  1  0  0  0  0
  4 15  1  0  0  0  0
  5 16  1  0  0  0  0
  5 17  1  0  0  0  0
  6 18  1  0  0  0  0
  6 19  1  0  0  0  0
  7 20  1  0  0  0  0
  7 21  1  0  0  0  0
  8 22  1  0  0  0  0
  8 23  1  0  0  0  0
 10 24  1  0  0  0  0
 10 25  1  0  0  0  0
M  CHG  2   9   1  11  -1
M  END
> <FRED Chemgauss4 score>
-4.383826

$$$$
C88001858	P137647862
  -OEChem-05122015083D

 23 23  0     1  0  0  0  0  0999 V2000
   55.5428  154.2153   -6.4224 C   0  0  0  0  0  0  0  0  0  0  0  0
   54.7478  155.1444   -4.6297 C   0  0  0  0  0  0  0  0  0  0  0  0
   54.6872  156.5503   -6.7178 C   0  0  0  0  0  0  0  0  0  0  0  0
   55.4535  159.1278   -1.9390 C   0  0  0  0  0  0  0  0  0  0  0  0
   55.1625  157.0745   -3.0444 C   0  0  0  0  0  0  0  0  0  0  0  0
   54.1210  156.1763   -3.7170 C   0  0  2  0  0  0  0  0  0  0  0  0
   55.6537  153.3449   -5.4443 N   0  0  0  0  0  0  0  0  0  0  0  0
   55.1480  153.9361   -4.3038 N   0  0  0  0  0  0  0  0  0  0  0  0
   54.9775  155.3625   -5.9543 N   0  0  0  0  0  0  0  0  0  0  0  0
   53.2859  155.5442   -2.7180 N   0  0  0  0  0  0  0  0  0  0  0  0
   54.5249  158.2534   -2.5635 O   0  0  0  0  0  0  0  0  0  0  0  0
   55.8443  154.0716   -7.4502 H   0  0  0  0  0  0  0  0  0  0  0  0
   53.6751  156.4540   -7.1196 H   0  0  0  0  0  0  0  0  0  0  0  0
   54.7588  157.4272   -6.0683 H   0  0  0  0  0  0  0  0  0  0  0  0
   55.4143  156.6452   -7.5290 H   0  0  0  0  0  0  0  0  0  0  0  0
   54.9324  160.0197   -1.5826 H   0  0  0  0  0  0  0  0  0  0  0  0
   56.2298  159.4083   -2.6554 H   0  0  0  0  0  0  0  0  0  0  0  0
   55.9117  158.6131   -1.0912 H   0  0  0  0  0  0  0  0  0  0  0  0
   55.6178  156.5700   -2.1851 H   0  0  0  0  0  0  0  0  0  0  0  0
   55.9565  157.3717   -3.7381 H   0  0  0  0  0  0  0  0  0  0  0  0
   53.4388  156.8104   -4.2972 H   0  0  0  0  0  0  0  0  0  0  0  0
   52.7739  154.7191   -2.9696 H   0  0  0  0  0  0  0  0  0  0  0  0
   53.0778  156.0473   -1.8754 H   0  0  0  0  0  0  0  0  0  0  0  0
  1  7  2  0  0  0  0
  1  9  1  0  0  0  0
  2  6  1  0  0  0  0
  2  8  2  0  0  0  0
  2  9  1  0  0  0  0
  3  9  1  0  0  0  0
  4 11  1  0  0  0  0
  5  6  1  0  0  0  0
  5 11  1  0  0  0  0
  6 10  1  0  0  0  0
  7  8  1  0  0  0  0
  1 12  1  0  0  0  0
  3 13  1  0  0  0  0
  3 14  1  0  0  0  0
  3 15  1  0  0  0  0
  4 16  1  0  0  0  0
  4 17  1  0  0  0  0
  4 18  1  0  0  0  0
  5 19  1  0  0  0  0
  5 20  1  0  0  0  0
  6 21  1  0  0  0  0
 10 22  1  0  0  0  0
 10 23  1  0  0  0  0
M  END
> <FRED Chemgauss4 score>
-4.383509

$$$$
C42271757	P87779434
  -OEChem-05122015083D

 38 39  0     1  0  0  0  0  0999 V2000
   55.0732  159.0715   -3.7393 C   0  0  0  0  0  0  0  0  0  0  0  0
   56.0817  160.0211   -3.5763 C   0  0  0  0  0  0  0  0  0  0  0  0
   55.5703  158.1683   -1.5543 C   0  0  0  0  0  0  0  0  0  0  0  0
   54.8174  158.1451   -2.7283 C   0  0  0  0  0  0  0  0  0  0  0  0
   56.8346  160.0443   -2.4023 C   0  0  0  0  0  0  0  0  0  0  0  0
   56.5789  159.1179   -1.3913 C   0  0  0  0  0  0  0  0  0  0  0  0
   56.3893  164.3093   -1.8339 C   0  0  0  0  0  0  0  0  0  0  0  0
   55.0078  164.9344   -1.6781 C   0  0  0  0  0  0  0  0  0  0  0  0
   55.4450  163.7038   -4.0040 C   0  0  0  0  0  0  0  0  0  0  0  0
   56.2175  163.1431   -2.8105 C   0  0  1  0  0  0  0  0  0  0  0  0
   59.0297  163.2326   -4.9837 C   0  0  0  0  0  0  0  0  0  0  0  0
   58.4352  163.6076   -3.6690 C   0  0  0  0  0  0  0  0  0  0  0  0
   53.7975  157.1851   -2.8937 N   0  0  0  0  0  0  0  0  0  0  0  0
   57.4774  162.5735   -3.1992 N   0  0  1  0  0  0  0  0  0  0  0  0
   52.9827  164.1946   -3.1927 O   0  0  0  0  0  0  0  0  0  0  0  0
   54.4291  166.1348   -3.9545 O   0  0  0  0  0  0  0  0  0  0  0  0
   58.1529  161.6708   -0.8578 O   0  0  0  0  0  0  0  0  0  0  0  0
   59.2932  160.7421   -2.8878 O   0  0  0  0  0  0  0  0  0  0  0  0
   54.2684  164.8518   -3.3026 S   0  0  0  0  0  0  0  0  0  0  0  0
   58.1012  161.2730   -2.2526 S   0  0  0  0  0  0  0  0  0  0  0  0
   57.4825  159.1044    0.0805 Cl  0  0  0  0  0  0  0  0  0  0  0  0
   54.4925  159.0622   -4.6582 H   0  0  0  0  0  0  0  0  0  0  0  0
   56.2705  160.7371   -4.3718 H   0  0  0  0  0  0  0  0  0  0  0  0
   55.3661  157.4430   -0.7693 H   0  0  0  0  0  0  0  0  0  0  0  0
   57.1153  165.0449   -2.1841 H   0  0  0  0  0  0  0  0  0  0  0  0
   56.7278  163.9256   -0.8671 H   0  0  0  0  0  0  0  0  0  0  0  0
   54.3848  164.3920   -0.9637 H   0  0  0  0  0  0  0  0  0  0  0  0
   55.0726  165.9866   -1.3874 H   0  0  0  0  0  0  0  0  0  0  0  0
   56.0734  164.2252   -4.7270 H   0  0  0  0  0  0  0  0  0  0  0  0
   54.8723  162.9153   -4.4981 H   0  0  0  0  0  0  0  0  0  0  0  0
   55.6143  162.3365   -2.3260 H   0  0  0  0  0  0  0  0  0  0  0  0
   59.5755  162.2857   -4.9099 H   0  0  0  0  0  0  0  0  0  0  0  0
   58.2536  163.1431   -5.7516 H   0  0  0  0  0  0  0  0  0  0  0  0
   59.7371  164.0062   -5.3056 H   0  0  0  0  0  0  0  0  0  0  0  0
   57.8917  164.5538   -3.7498 H   0  0  0  0  0  0  0  0  0  0  0  0
   59.2132  163.7120   -2.9070 H   0  0  0  0  0  0  0  0  0  0  0  0
   53.2342  157.2090   -3.7196 H   0  0  0  0  0  0  0  0  0  0  0  0
   53.5926  156.5571   -2.1430 H   0  0  0  0  0  0  0  0  0  0  0  0
  1  2  2  0  0  0  0
  1  4  1  0  0  0  0
  2  5  1  0  0  0  0
  3  4  2  0  0  0  0
  3  6  1  0  0  0  0
  4 13  1  0  0  0  0
  5  6  2  0  0  0  0
  5 20  1  0  0  0  0
  6 21  1  0  0  0  0
  7  8  1  0  0  0  0
  7 10  1  0  0  0  0
  8 19  1  0  0  0  0
  9 10  1  0  0  0  0
  9 19  1  0  0  0  0
 10 14  1  0  0  0  0
 11 12  1  0  0  0  0
 12 14  1  0  0  0  0
 14 20  1  0  0  0  0
 15 19  2  0  0  0  0
 16 19  2  0  0  0  0
 17 20  2  0  0  0  0
 18 20  2  0  0  0  0
  1 22  1  0  0  0  0
  2 23  1  0  0  0  0
  3 24  1  0  0  0  0
  7 25  1  0  0  0  0
  7 26  1  0  0  0  0
  8 27  1  0  0  0  0
  8 28  1  0  0  0  0
  9 29  1  0  0  0  0
  9 30  1  0  0  0  0
 10 31  1  0  0  0  0
 11 32  1  0  0  0  0
 11 33  1  0  0  0  0
 11 34  1  0  0  0  0
 12 35  1  0  0  0  0
 12 36  1  0  0  0  0
 13 37  1  0  0  0  0
 13 38  1  0  0  0  0
M  END
> <FRED Chemgauss4 score>
-4.377799

$$$$
C85172004	P133262859
  -OEChem-05122015083D

 27 27  0     1  0  0  0  0  0999 V2000
   55.3380  154.3939   -6.2500 C   0  0  0  0  0  0  0  0  0  0  0  0
   56.9580  155.5927   -5.5652 C   0  0  0  0  0  0  0  0  0  0  0  0
   54.7638  155.3972   -5.5055 C   0  0  0  0  0  0  0  0  0  0  0  0
   52.7406  159.1754   -6.3728 C   0  0  0  0  0  0  0  0  0  0  0  0
   55.7463  157.3403   -4.2489 C   0  0  0  0  0  0  0  0  0  0  0  0
   52.9481  157.7006   -6.4405 C   0  0  0  0  0  0  0  0  0  0  0  0
   52.8673  155.0229   -3.8718 C   0  0  0  0  0  0  0  0  0  0  0  0
   53.3193  155.6990   -5.1689 C   0  0  1  0  0  0  0  0  0  0  0  0
   56.7042  154.5211   -6.2830 N   0  0  0  0  0  0  0  0  0  0  0  0
   55.8140  156.1569   -5.0731 N   0  0  0  0  0  0  0  0  0  0  0  0
   53.0948  157.1274   -5.1058 N   0  0  0  0  0  0  0  0  0  0  0  0
   53.6537  155.5110   -2.7897 O   0  0  0  0  0  0  0  0  0  0  0  0
   54.8394  153.5853   -6.7648 H   0  0  0  0  0  0  0  0  0  0  0  0
   57.9392  156.0032   -5.3689 H   0  0  0  0  0  0  0  0  0  0  0  0
   51.8337  159.4169   -5.8079 H   0  0  0  0  0  0  0  0  0  0  0  0
   53.5995  159.6692   -5.9053 H   0  0  0  0  0  0  0  0  0  0  0  0
   52.6262  159.5812   -7.3851 H   0  0  0  0  0  0  0  0  0  0  0  0
   55.6544  158.2066   -4.9094 H   0  0  0  0  0  0  0  0  0  0  0  0
   54.8802  157.2724   -3.5846 H   0  0  0  0  0  0  0  0  0  0  0  0
   56.6555  157.4130   -3.6455 H   0  0  0  0  0  0  0  0  0  0  0  0
   53.8551  157.4665   -7.0059 H   0  0  0  0  0  0  0  0  0  0  0  0
   52.0965  157.2107   -6.9218 H   0  0  0  0  0  0  0  0  0  0  0  0
   51.8200  155.2578   -3.6525 H   0  0  0  0  0  0  0  0  0  0  0  0
   52.9811  153.9343   -3.9159 H   0  0  0  0  0  0  0  0  0  0  0  0
   52.6738  155.3491   -5.9845 H   0  0  0  0  0  0  0  0  0  0  0  0
   52.2453  157.3197   -4.5697 H   0  0  0  0  0  0  0  0  0  0  0  0
   53.3371  155.0601   -1.9912 H   0  0  0  0  0  0  0  0  0  0  0  0
  1  3  2  0  0  0  0
  1  9  1  0  0  0  0
  2  9  2  0  0  0  0
  2 10  1  0  0  0  0
  3  8  1  0  0  0  0
  3 10  1  0  0  0  0
  4  6  1  0  0  0  0
  5 10  1  0  0  0  0
  6 11  1  0  0  0  0
  7  8  1  0  0  0  0
  7 12  1  0  0  0  0
  8 11  1  0  0  0  0
  1 13  1  0  0  0  0
  2 14  1  0  0  0  0
  4 15  1  0  0  0  0
  4 16  1  0  0  0  0
  4 17  1  0  0  0  0
  5 18  1  0  0  0  0
  5 19  1  0  0  0  0
  5 20  1  0  0  0  0
  6 21  1  0  0  0  0
  6 22  1  0  0  0  0
  7 23  1  0  0  0  0
  7 24  1  0  0  0  0
  8 25  1  0  0  0  0
 11 26  1  0  0  0  0
 12 27  1  0  0  0  0
M  END
> <FRED Chemgauss4 score>
-4.370208

$$$$
C82909345	P129612485
  -OEChem-05122015083D

 30 31  0     0  0  0  0  0  0999 V2000
   53.8057  155.3205   -3.6926 C   0  0  0  0  0  0  0  0  0  0  0  0
   54.4279  157.3789   -3.4007 C   0  0  0  0  0  0  0  0  0  0  0  0
   56.7303  158.5437   -3.2370 C   0  0  0  0  0  0  0  0  0  0  0  0
   54.6497  159.7890   -2.6096 C   0  0  0  0  0  0  0  0  0  0  0  0
   57.4715  159.8738   -3.1392 C   0  0  0  0  0  0  0  0  0  0  0  0
   55.5139  161.0452   -2.5437 C   0  0  0  0  0  0  0  0  0  0  0  0
   55.2165  158.6980   -3.5628 C   0  0  0  0  0  0  0  0  0  0  0  0
   55.7327  156.0660   -5.1078 C   0  0  0  0  0  0  0  0  0  0  0  0
   55.0577  159.1421   -5.0362 C   0  0  0  0  0  0  0  0  0  0  0  0
   53.0213  155.8440   -2.7777 N   0  0  0  0  0  0  0  0  0  0  0  0
   53.4171  157.1535   -2.5920 N   0  0  0  0  0  0  0  0  0  0  0  0
   54.7063  156.2518   -4.1127 N   0  0  0  0  0  0  0  0  0  0  0  0
   53.6795  159.3335   -5.3294 N   0  0  0  0  0  0  0  0  0  0  0  0
   56.8524  160.7254   -2.1814 O   0  0  0  0  0  0  0  0  0  0  0  0
   53.7664  154.3100   -4.0738 H   0  0  0  0  0  0  0  0  0  0  0  0
   57.2032  157.9436   -4.0325 H   0  0  0  0  0  0  0  0  0  0  0  0
   56.8658  157.9814   -2.2989 H   0  0  0  0  0  0  0  0  0  0  0  0
   54.5252  159.3805   -1.5909 H   0  0  0  0  0  0  0  0  0  0  0  0
   53.6396  160.0763   -2.9544 H   0  0  0  0  0  0  0  0  0  0  0  0
   58.5261  159.7343   -2.8769 H   0  0  0  0  0  0  0  0  0  0  0  0
   57.4408  160.3849   -4.1065 H   0  0  0  0  0  0  0  0  0  0  0  0
   55.5450  161.5199   -3.5326 H   0  0  0  0  0  0  0  0  0  0  0  0
   55.1097  161.7901   -1.8447 H   0  0  0  0  0  0  0  0  0  0  0  0
   55.3103  156.3292   -6.0812 H   0  0  0  0  0  0  0  0  0  0  0  0
   56.5862  156.7088   -4.8750 H   0  0  0  0  0  0  0  0  0  0  0  0
   56.0582  155.0220   -5.1007 H   0  0  0  0  0  0  0  0  0  0  0  0
   55.4597  158.3665   -5.6710 H   0  0  0  0  0  0  0  0  0  0  0  0
   55.5907  160.0704   -5.1763 H   0  0  0  0  0  0  0  0  0  0  0  0
   52.9820  158.7286   -4.9064 H   0  0  0  0  0  0  0  0  0  0  0  0
   53.4037  159.9282   -6.1051 H   0  0  0  0  0  0  0  0  0  0  0  0
  1 10  2  0  0  0  0
  1 12  1  0  0  0  0
  2  7  1  0  0  0  0
  2 11  2  0  0  0  0
  2 12  1  0  0  0  0
  3  5  1  0  0  0  0
  3  7  1  0  0  0  0
  4  6  1  0  0  0  0
  4  7  1  0  0  0  0
  5 14  1  0  0  0  0
  6 14  1  0  0  0  0
  7  9  1  0  0  0  0
  8 12  1  0  0  0  0
  9 13  1  0  0  0  0
 10 11  1  0  0  0  0
  1 15  1  0  0  0  0
  3 16  1  0  0  0  0
  3 17  1  0  0  0  0
  4 18  1  0  0  0  0
  4 19  1  0  0  0  0
  5 20  1  0  0  0  0
  5 21  1  0  0  0  0
  6 22  1  0  0  0  0
  6 23  1  0  0  0  0
  8 24  1  0  0  0  0
  8 25  1  0  0  0  0
  8 26  1  0  0  0  0
  9 27  1  0  0  0  0
  9 28  1  0  0  0  0
 13 29  1  0  0  0  0
 13 30  1  0  0  0  0
M  END
> <FRED Chemgauss4 score>
-4.366083

$$$$
C82591648	P129083677
  -OEChem-05122015083D

 26 26  0     0  0  0  0  0  0999 V2000
   55.0425  155.9034   -3.5848 C   0  0  0  0  0  0  0  0  0  0  0  0
   53.1821  155.3396   -4.3933 C   0  0  0  0  0  0  0  0  0  0  0  0
   53.5889  156.2856   -3.2478 C   0  0  0  0  0  0  0  0  0  0  0  0
   58.7524  157.1774   -5.2696 C   0  0  0  0  0  0  0  0  0  0  0  0
   56.8323  156.3534   -6.3453 C   0  0  0  0  0  0  0  0  0  0  0  0
   56.9451  154.8720   -6.0424 C   0  0  0  0  0  0  0  0  0  0  0  0
   54.5926  155.3593   -4.9114 N   0  0  0  0  0  0  0  0  0  0  0  0
   53.3571  157.6637   -3.6753 N   0  0  0  0  0  0  0  0  0  0  0  0
   54.7159  154.0083   -7.0969 O   0  0  0  0  0  0  0  0  0  0  0  0
   55.5342  152.9657   -4.9453 O   0  0  0  0  0  0  0  0  0  0  0  0
   58.1227  156.9248   -6.5182 O   0  0  0  0  0  0  0  0  0  0  0  0
   55.3500  154.1283   -5.7959 S   0  0  0  0  0  0  0  0  0  0  0  0
   55.7740  156.7110   -3.6784 H   0  0  0  0  0  0  0  0  0  0  0  0
   55.4559  155.1140   -2.9467 H   0  0  0  0  0  0  0  0  0  0  0  0
   52.8904  154.3366   -4.0617 H   0  0  0  0  0  0  0  0  0  0  0  0
   52.4527  155.7047   -5.1220 H   0  0  0  0  0  0  0  0  0  0  0  0
   53.2301  156.0353   -2.2477 H   0  0  0  0  0  0  0  0  0  0  0  0
   59.7390  157.6150   -5.4402 H   0  0  0  0  0  0  0  0  0  0  0  0
   58.8483  156.2417   -4.7131 H   0  0  0  0  0  0  0  0  0  0  0  0
   58.1394  157.8780   -4.6977 H   0  0  0  0  0  0  0  0  0  0  0  0
   56.2681  156.5126   -7.2695 H   0  0  0  0  0  0  0  0  0  0  0  0
   56.3264  156.8914   -5.5378 H   0  0  0  0  0  0  0  0  0  0  0  0
   57.5176  154.6877   -5.1287 H   0  0  0  0  0  0  0  0  0  0  0  0
   57.4097  154.3394   -6.8769 H   0  0  0  0  0  0  0  0  0  0  0  0
   54.0097  158.3593   -3.3868 H   0  0  0  0  0  0  0  0  0  0  0  0
   52.4655  157.8913   -4.0577 H   0  0  0  0  0  0  0  0  0  0  0  0
  1  3  1  0  0  0  0
  1  7  1  0  0  0  0
  2  3  1  0  0  0  0
  2  7  1  0  0  0  0
  3  8  1  0  0  0  0
  4 11  1  0  0  0  0
  5  6  1  0  0  0  0
  5 11  1  0  0  0  0
  6 12  1  0  0  0  0
  7 12  1  0  0  0  0
  9 12  2  0  0  0  0
 10 12  2  0  0  0  0
  1 13  1  0  0  0  0
  1 14  1  0  0  0  0
  2 15  1  0  0  0  0
  2 16  1  0  0  0  0
  3 17  1  0  0  0  0
  4 18  1  0  0  0  0
  4 19  1  0  0  0  0
  4 20  1  0  0  0  0
  5 21  1  0  0  0  0
  5 22  1  0  0  0  0
  6 23  1  0  0  0  0
  6 24  1  0  0  0  0
  8 25  1  0  0  0  0
  8 26  1  0  0  0  0
M  END
> <FRED Chemgauss4 score>
-4.358621

$$$$
C82916559	P129632711
  -OEChem-05122015083D

 21 20  0     1  0  0  0  0  0999 V2000
   57.4126  156.2769   -6.2437 C   0  0  0  0  0  0  0  0  0  0  0  0
   54.5821  155.2127   -6.2709 C   0  0  0  0  0  0  0  0  0  0  0  0
   53.3829  155.0922   -4.0572 C   0  0  0  0  0  0  0  0  0  0  0  0
   55.8610  154.5929   -5.7150 C   0  0  0  0  0  0  0  0  0  0  0  0
   53.8077  156.0033   -5.2126 C   0  0  2  0  0  0  0  0  0  0  0  0
   52.6590  155.8520   -3.0410 N   0  0  0  0  0  0  0  0  0  0  0  0
   52.6468  156.5606   -5.8268 O   0  0  0  0  0  0  0  0  0  0  0  0
   56.7070  155.6147   -5.2032 O   0  0  0  0  0  0  0  0  0  0  0  0
   58.0509  157.0535   -5.8152 H   0  0  0  0  0  0  0  0  0  0  0  0
   56.6998  156.7211   -6.9432 H   0  0  0  0  0  0  0  0  0  0  0  0
   58.0329  155.5489   -6.7719 H   0  0  0  0  0  0  0  0  0  0  0  0
   53.9543  154.4078   -6.6748 H   0  0  0  0  0  0  0  0  0  0  0  0
   54.8365  155.8595   -7.1196 H   0  0  0  0  0  0  0  0  0  0  0  0
   52.7392  154.2849   -4.4228 H   0  0  0  0  0  0  0  0  0  0  0  0
   54.2639  154.6430   -3.5855 H   0  0  0  0  0  0  0  0  0  0  0  0
   55.6341  153.9032   -4.8961 H   0  0  0  0  0  0  0  0  0  0  0  0
   56.4128  154.0434   -6.4841 H   0  0  0  0  0  0  0  0  0  0  0  0
   54.4298  156.8287   -4.8454 H   0  0  0  0  0  0  0  0  0  0  0  0
   52.6586  155.5037   -2.1071 H   0  0  0  0  0  0  0  0  0  0  0  0
   52.0323  156.5645   -3.3466 H   0  0  0  0  0  0  0  0  0  0  0  0
   52.9628  157.1372   -6.5390 H   0  0  0  0  0  0  0  0  0  0  0  0
  1  8  1  0  0  0  0
  2  4  1  0  0  0  0
  2  5  1  0  0  0  0
  3  5  1  0  0  0  0
  3  6  1  0  0  0  0
  4  8  1  0  0  0  0
  5  7  1  0  0  0  0
  1  9  1  0  0  0  0
  1 10  1  0  0  0  0
  1 11  1  0  0  0  0
  2 12  1  0  0  0  0
  2 13  1  0  0  0  0
  3 14  1  0  0  0  0
  3 15  1  0  0  0  0
  4 16  1  0  0  0  0
  4 17  1  0  0  0  0
  5 18  1  0  0  0  0
  6 19  1  0  0  0  0
  6 20  1  0  0  0  0
  7 21  1  0  0  0  0
M  END
> <FRED Chemgauss4 score>
-4.343844

$$$$
C97647104	P154815275
  -OEChem-05122015083D

 47 48  0     1  0  0  0  0  0999 V2000
   56.0886  154.5918   -6.0851 C   0  0  0  0  0  0  0  0  0  0  0  0
   58.8134  157.7855   -5.3774 C   0  0  0  0  0  0  0  0  0  0  0  0
   57.7531  157.5350   -7.6222 C   0  0  0  0  0  0  0  0  0  0  0  0
   56.4275  156.9977   -5.4971 C   0  0  0  0  0  0  0  0  0  0  0  0
   57.4428  154.6287   -6.7772 C   0  0  0  0  0  0  0  0  0  0  0  0
   60.1567  157.8962   -6.0948 C   0  0  0  0  0  0  0  0  0  0  0  0
   59.1517  157.6468   -8.2230 C   0  0  0  0  0  0  0  0  0  0  0  0
   55.4424  155.9785   -6.0817 C   0  0  2  0  0  0  0  0  0  0  0  0
   57.8025  156.9515   -6.1933 C   0  0  0  0  0  0  0  0  0  0  0  0
   51.9044  156.4484   -3.2337 C   0  0  0  0  0  0  0  0  0  0  0  0
   55.4350  157.4351   -2.2144 C   0  0  0  0  0  0  0  0  0  0  0  0
   53.1462  155.6197   -2.9259 C   0  0  0  0  0  0  0  0  0  0  0  0
   54.1332  155.9696   -5.2956 C   0  0  1  0  0  0  0  0  0  0  0  0
   54.3519  156.0498   -3.7735 C   0  0  1  0  0  0  0  0  0  0  0  0
   52.6345  156.6015   -6.9750 N   0  0  0  0  0  0  0  0  0  0  0  0
   53.2629  157.0249   -5.7606 N   0  0  0  0  0  0  0  0  0  0  0  0
   59.9911  158.4518   -7.3975 O   0  0  0  0  0  0  0  0  0  0  0  0
   58.3028  155.6032   -6.1932 O   0  0  0  0  0  0  0  0  0  0  0  0
   54.7175  157.3903   -3.4368 O   0  0  0  0  0  0  0  0  0  0  0  0
   55.4359  153.8632   -6.5790 H   0  0  0  0  0  0  0  0  0  0  0  0
   56.2294  154.2573   -5.0493 H   0  0  0  0  0  0  0  0  0  0  0  0
   58.9776  157.3351   -4.3913 H   0  0  0  0  0  0  0  0  0  0  0  0
   58.4108  158.7953   -5.2257 H   0  0  0  0  0  0  0  0  0  0  0  0
   57.3108  158.5388   -7.5793 H   0  0  0  0  0  0  0  0  0  0  0  0
   57.1306  156.9352   -8.2922 H   0  0  0  0  0  0  0  0  0  0  0  0
   56.0030  158.0080   -5.5512 H   0  0  0  0  0  0  0  0  0  0  0  0
   56.5625  156.7690   -4.4307 H   0  0  0  0  0  0  0  0  0  0  0  0
   57.9330  153.6553   -6.6705 H   0  0  0  0  0  0  0  0  0  0  0  0
   57.3389  154.8110   -7.8514 H   0  0  0  0  0  0  0  0  0  0  0  0
   60.8214  158.5600   -5.5326 H   0  0  0  0  0  0  0  0  0  0  0  0
   60.6556  156.9233   -6.1732 H   0  0  0  0  0  0  0  0  0  0  0  0
   59.6118  156.6621   -8.3655 H   0  0  0  0  0  0  0  0  0  0  0  0
   59.0945  158.1276   -9.2048 H   0  0  0  0  0  0  0  0  0  0  0  0
   55.2078  156.2603   -7.1158 H   0  0  0  0  0  0  0  0  0  0  0  0
   51.6522  156.3683   -4.2959 H   0  0  0  0  0  0  0  0  0  0  0  0
   52.0642  157.5069   -3.0057 H   0  0  0  0  0  0  0  0  0  0  0  0
   51.0453  156.0960   -2.6540 H   0  0  0  0  0  0  0  0  0  0  0  0
   55.6999  158.4700   -1.9843 H   0  0  0  0  0  0  0  0  0  0  0  0
   56.3389  156.8266   -2.2989 H   0  0  0  0  0  0  0  0  0  0  0  0
   54.8034  157.0371   -1.4167 H   0  0  0  0  0  0  0  0  0  0  0  0
   53.3744  155.7184   -1.8596 H   0  0  0  0  0  0  0  0  0  0  0  0
   52.9026  154.5682   -3.1184 H   0  0  0  0  0  0  0  0  0  0  0  0
   53.6029  155.0371   -5.5220 H   0  0  0  0  0  0  0  0  0  0  0  0
   55.2131  155.4232   -3.5119 H   0  0  0  0  0  0  0  0  0  0  0  0
   52.9230  155.6472   -7.1890 H   0  0  0  0  0  0  0  0  0  0  0  0
   51.6257  156.5625   -6.8350 H   0  0  0  0  0  0  0  0  0  0  0  0
   53.8058  157.8711   -5.9508 H   0  0  0  0  0  0  0  0  0  0  0  0
  1  5  1  0  0  0  0
  1  8  1  0  0  0  0
  2  6  1  0  0  0  0
  2  9  1  0  0  0  0
  3  7  1  0  0  0  0
  3  9  1  0  0  0  0
  4  8  1  0  0  0  0
  4  9  1  0  0  0  0
  5 18  1  0  0  0  0
  6 17  1  0  0  0  0
  7 17  1  0  0  0  0
  8 13  1  0  0  0  0
  9 18  1  0  0  0  0
 10 12  1  0  0  0  0
 11 19  1  0  0  0  0
 12 14  1  0  0  0  0
 13 14  1  0  0  0  0
 13 16  1  0  0  0  0
 14 19  1  0  0  0  0
 15 16  1  0  0  0  0
  1 20  1  0  0  0  0
  1 21  1  0  0  0  0
  2 22  1  0  0  0  0
  2 23  1  0  0  0  0
  3 24  1  0  0  0  0
  3 25  1  0  0  0  0
  4 26  1  0  0  0  0
  4 27  1  0  0  0  0
  5 28  1  0  0  0  0
  5 29  1  0  0  0  0
  6 30  1  0  0  0  0
  6 31  1  0  0  0  0
  7 32  1  0  0  0  0
  7 33  1  0  0  0  0
  8 34  1  0  0  0  0
 10 35  1  0  0  0  0
 10 36  1  0  0  0  0
 10 37  1  0  0  0  0
 11 38  1  0  0  0  0
 11 39  1  0  0  0  0
 11 40  1  0  0  0  0
 12 41  1  0  0  0  0
 12 42  1  0  0  0  0
 13 43  1  0  0  0  0
 14 44  1  0  0  0  0
 15 45  1  0  0  0  0
 15 46  1  0  0  0  0
 16 47  1  0  0  0  0
M  END
> <FRED Chemgauss4 score>
-4.336973

$$$$
C72225679	P112211237
  -OEChem-05122015083D

 20 20  0     1  0  0  0  0  0999 V2000
   55.8575  155.5045   -4.7482 C   0  0  0  0  0  0  0  0  0  0  0  0
   56.9054  156.0318   -5.3974 C   0  0  0  0  0  0  0  0  0  0  0  0
   54.3724  157.2062   -5.5635 C   0  0  0  0  0  0  0  0  0  0  0  0
   54.5381  156.1000   -4.8232 C   0  0  0  0  0  0  0  0  0  0  0  0
   56.7119  157.2640   -6.2200 C   0  0  0  0  0  0  0  0  0  0  0  0
   52.2841  155.0688   -4.9838 C   0  0  0  0  0  0  0  0  0  0  0  0
   53.4301  155.4413   -4.0651 C   0  0  2  0  0  0  0  0  0  0  0  0
   55.4244  157.7720   -6.2412 N   0  0  0  0  0  0  0  0  0  0  0  0
   53.0361  156.4053   -3.0777 N   0  0  0  0  0  0  0  0  0  0  0  0
   57.9423  158.0161   -7.0771 S   0  0  0  0  0  0  0  0  0  0  0  0
   55.9869  154.6090   -4.1487 H   0  0  0  0  0  0  0  0  0  0  0  0
   57.8888  155.5795   -5.3363 H   0  0  0  0  0  0  0  0  0  0  0  0
   53.4205  157.7116   -5.6704 H   0  0  0  0  0  0  0  0  0  0  0  0
   51.8844  155.9455   -5.5064 H   0  0  0  0  0  0  0  0  0  0  0  0
   52.6132  154.3522   -5.7438 H   0  0  0  0  0  0  0  0  0  0  0  0
   51.4620  154.6179   -4.4183 H   0  0  0  0  0  0  0  0  0  0  0  0
   53.8246  154.5636   -3.5469 H   0  0  0  0  0  0  0  0  0  0  0  0
   55.2367  158.6105   -6.7829 H   0  0  0  0  0  0  0  0  0  0  0  0
   53.7312  157.0213   -2.6833 H   0  0  0  0  0  0  0  0  0  0  0  0
   52.1290  156.3249   -2.6430 H   0  0  0  0  0  0  0  0  0  0  0  0
  1  2  2  0  0  0  0
  1  4  1  0  0  0  0
  2  5  1  0  0  0  0
  3  4  2  0  0  0  0
  3  8  1  0  0  0  0
  4  7  1  0  0  0  0
  5  8  1  0  0  0  0
  5 10  2  0  0  0  0
  6  7  1  0  0  0  0
  7  9  1  0  0  0  0
  1 11  1  0  0  0  0
  2 12  1  0  0  0  0
  3 13  1  0  0  0  0
  6 14  1  0  0  0  0
  6 15  1  0  0  0  0
  6 16  1  0  0  0  0
  7 17  1  0  0  0  0
  8 18  1  0  0  0  0
  9 19  1  0  0  0  0
  9 20  1  0  0  0  0
M  END
> <FRED Chemgauss4 score>
-4.331408

$$$$
C88067605	P137750906
  -OEChem-05122015083D

 27 27  0     1  0  0  0  0  0999 V2000
   59.4921  157.1978   -5.9413 C   0  0  0  0  0  0  0  0  0  0  0  0
   57.9732  155.8141   -6.3094 C   0  0  0  0  0  0  0  0  0  0  0  0
   53.8520  156.5269   -5.8457 C   0  0  0  0  0  0  0  0  0  0  0  0
   59.2214  154.4700   -8.0414 C   0  0  0  0  0  0  0  0  0  0  0  0
   56.7112  155.0016   -6.3399 C   0  0  0  0  0  0  0  0  0  0  0  0
   54.7731  157.3064   -3.5965 C   0  0  0  0  0  0  0  0  0  0  0  0
   55.0835  156.6653   -4.9540 C   0  0  1  0  0  0  0  0  0  0  0  0
   58.2200  156.8696   -5.5688 N   0  0  0  0  0  0  0  0  0  0  0  0
   60.0478  156.4118   -6.8659 N   0  0  0  0  0  0  0  0  0  0  0  0
   59.0557  155.5353   -7.0841 N   0  0  0  0  0  0  0  0  0  0  0  0
   53.7791  156.5389   -2.8531 N   0  0  0  0  0  0  0  0  0  0  0  0
   54.7305  154.0188   -4.8039 O   0  0  0  0  0  0  0  0  0  0  0  0
   55.8365  155.0113   -4.6713 S   0  0  1  0  0  0  0  0  0  0  0  0
   60.0308  158.0359   -5.5259 H   0  0  0  0  0  0  0  0  0  0  0  0
   53.0643  155.9453   -5.3540 H   0  0  0  0  0  0  0  0  0  0  0  0
   53.4375  157.5066   -6.1042 H   0  0  0  0  0  0  0  0  0  0  0  0
   54.1004  156.0195   -6.7844 H   0  0  0  0  0  0  0  0  0  0  0  0
   58.8824  154.8351   -9.0145 H   0  0  0  0  0  0  0  0  0  0  0  0
   60.2754  154.1822   -8.0872 H   0  0  0  0  0  0  0  0  0  0  0  0
   58.6278  153.6067   -7.7278 H   0  0  0  0  0  0  0  0  0  0  0  0
   56.0147  155.3979   -7.0864 H   0  0  0  0  0  0  0  0  0  0  0  0
   56.9207  153.9612   -6.6103 H   0  0  0  0  0  0  0  0  0  0  0  0
   55.6845  157.3850   -2.9922 H   0  0  0  0  0  0  0  0  0  0  0  0
   54.3941  158.3255   -3.7376 H   0  0  0  0  0  0  0  0  0  0  0  0
   55.8472  157.2514   -5.4786 H   0  0  0  0  0  0  0  0  0  0  0  0
   53.2239  157.0186   -2.1774 H   0  0  0  0  0  0  0  0  0  0  0  0
   53.8267  155.5434   -2.8945 H   0  0  0  0  0  0  0  0  0  0  0  0
  1  8  1  0  0  0  0
  1  9  2  0  0  0  0
  2  5  1  0  0  0  0
  2  8  2  0  0  0  0
  2 10  1  0  0  0  0
  3  7  1  0  0  0  0
  4 10  1  0  0  0  0
  5 13  1  0  0  0  0
  6  7  1  0  0  0  0
  6 11  1  0  0  0  0
  7 13  1  0  0  0  0
  9 10  1  0  0  0  0
 12 13  2  0  0  0  0
  1 14  1  0  0  0  0
  3 15  1  0  0  0  0
  3 16  1  0  0  0  0
  3 17  1  0  0  0  0
  4 18  1  0  0  0  0
  4 19  1  0  0  0  0
  4 20  1  0  0  0  0
  5 21  1  0  0  0  0
  5 22  1  0  0  0  0
  6 23  1  0  0  0  0
  6 24  1  0  0  0  0
  7 25  1  0  0  0  0
 11 26  1  0  0  0  0
 11 27  1  0  0  0  0
M  END
> <FRED Chemgauss4 score>
-4.328128

$$$$
C40228782	P61083036
  -OEChem-05122015083D

 20 19  0     0  0  0  0  0  0999 V2000
   56.2984  155.1298   -6.1265 C   0  0  0  0  0  0  0  0  0  0  0  0
   55.1341  156.0981   -6.0253 C   0  0  0  0  0  0  0  0  0  0  0  0
   53.4111  156.3473   -3.5516 C   0  0  0  0  0  0  0  0  0  0  0  0
   54.9191  156.2677   -3.6912 C   0  0  0  0  0  0  0  0  0  0  0  0
   55.2062  153.2085   -6.8908 N   0  0  0  0  0  0  0  0  0  0  0  0
   56.1014  154.2360   -7.2906 N   0  0  0  0  0  0  0  0  0  0  0  0
   53.0181  155.6663   -2.3663 O   0  0  0  0  0  0  0  0  0  0  0  0
   55.3098  156.9305   -4.8859 O   0  0  0  0  0  0  0  0  0  0  0  0
   57.2462  155.6612   -6.2587 H   0  0  0  0  0  0  0  0  0  0  0  0
   56.3577  154.5100   -5.2267 H   0  0  0  0  0  0  0  0  0  0  0  0
   54.1975  155.5461   -5.8992 H   0  0  0  0  0  0  0  0  0  0  0  0
   55.0583  156.7311   -6.9154 H   0  0  0  0  0  0  0  0  0  0  0  0
   52.9107  155.8709   -4.4002 H   0  0  0  0  0  0  0  0  0  0  0  0
   53.0886  157.3895   -3.4710 H   0  0  0  0  0  0  0  0  0  0  0  0
   55.2555  155.2280   -3.7526 H   0  0  0  0  0  0  0  0  0  0  0  0
   55.4084  156.7643   -2.8482 H   0  0  0  0  0  0  0  0  0  0  0  0
   54.8437  153.4089   -5.9591 H   0  0  0  0  0  0  0  0  0  0  0  0
   54.4006  153.2358   -7.5147 H   0  0  0  0  0  0  0  0  0  0  0  0
   56.9981  153.8412   -7.5416 H   0  0  0  0  0  0  0  0  0  0  0  0
   52.0518  155.7380   -2.3107 H   0  0  0  0  0  0  0  0  0  0  0  0
  1  2  1  0  0  0  0
  1  6  1  0  0  0  0
  2  8  1  0  0  0  0
  3  4  1  0  0  0  0
  3  7  1  0  0  0  0
  4  8  1  0  0  0  0
  5  6  1  0  0  0  0
  1  9  1  0  0  0  0
  1 10  1  0  0  0  0
  2 11  1  0  0  0  0
  2 12  1  0  0  0  0
  3 13  1  0  0  0  0
  3 14  1  0  0  0  0
  4 15  1  0  0  0  0
  4 16  1  0  0  0  0
  5 17  1  0  0  0  0
  5 18  1  0  0  0  0
  6 19  1  0  0  0  0
  7 20  1  0  0  0  0
M  END
> <FRED Chemgauss4 score>
-4.319448

$$$$
C71372386	P110391236
  -OEChem-05122015083D

 20 20  0     0  0  0  0  0  0999 V2000
   53.7090  157.5605   -3.9722 C   0  0  0  0  0  0  0  0  0  0  0  0
   54.0018  155.4670   -4.4627 C   0  0  0  0  0  0  0  0  0  0  0  0
   53.6082  159.0231   -4.1274 C   0  0  0  0  0  0  0  0  0  0  0  0
   54.2497  157.1170   -6.3826 C   0  0  0  0  0  0  0  0  0  0  0  0
   53.0802  156.8443   -7.3194 C   0  0  0  0  0  0  0  0  0  0  0  0
   53.5425  156.8692   -2.8673 N   0  0  0  0  0  0  0  0  0  0  0  0
   53.7288  155.5372   -3.1794 N   0  0  0  0  0  0  0  0  0  0  0  0
   53.9997  156.7177   -5.0017 N   0  0  0  0  0  0  0  0  0  0  0  0
   51.8934  157.6311   -6.9030 N   0  3  0  0  0  0  0  0  0  0  0  0
   54.3128  154.0458   -5.3354 S   0  5  0  0  0  0  0  0  0  0  0  0
   54.5836  159.5102   -3.9612 H   0  0  0  0  0  0  0  0  0  0  0  0
   53.2587  159.3111   -5.1343 H   0  0  0  0  0  0  0  0  0  0  0  0
   52.8881  159.4675   -3.4180 H   0  0  0  0  0  0  0  0  0  0  0  0
   55.1321  156.5578   -6.7169 H   0  0  0  0  0  0  0  0  0  0  0  0
   54.5255  158.1783   -6.3898 H   0  0  0  0  0  0  0  0  0  0  0  0
   53.3173  157.1606   -8.3393 H   0  0  0  0  0  0  0  0  0  0  0  0
   52.7778  155.7930   -7.3252 H   0  0  0  0  0  0  0  0  0  0  0  0
   51.0474  157.0515   -6.9118 H   0  0  0  0  0  0  0  0  0  0  0  0
   51.7396  158.4244   -7.5347 H   0  0  0  0  0  0  0  0  0  0  0  0
   52.0132  158.0012   -5.9539 H   0  0  0  0  0  0  0  0  0  0  0  0
  1  3  1  0  0  0  0
  1  6  2  0  0  0  0
  1  8  1  0  0  0  0
  2  7  2  0  0  0  0
  2  8  1  0  0  0  0
  2 10  1  0  0  0  0
  4  5  1  0  0  0  0
  4  8  1  0  0  0  0
  5  9  1  0  0  0  0
  6  7  1  0  0  0  0
  3 11  1  0  0  0  0
  3 12  1  0  0  0  0
  3 13  1  0  0  0  0
  4 14  1  0  0  0  0
  4 15  1  0  0  0  0
  5 16  1  0  0  0  0
  5 17  1  0  0  0  0
  9 18  1  0  0  0  0
  9 19  1  0  0  0  0
  9 20  1  0  0  0  0
M  CHG  2   9   1  10  -1
M  END
> <FRED Chemgauss4 score>
-4.314789

$$$$
C38803766	P151018888
  -OEChem-05122015083D

 15 15  0     0  0  0  0  0  0999 V2000
   55.7439  157.5285   -3.5580 C   0  0  0  0  0  0  0  0  0  0  0  0
   54.1042  156.4523   -2.9000 C   0  0  0  0  0  0  0  0  0  0  0  0
   56.9204  157.9383   -4.3597 C   0  0  0  0  0  0  0  0  0  0  0  0
   55.0114  156.4130   -3.8429 N   0  0  0  0  0  0  0  0  0  0  0  0
   55.3351  158.2378   -2.5018 N   0  0  0  0  0  0  0  0  0  0  0  0
   57.2139  157.1547   -5.3668 N   0  0  0  0  0  0  0  0  0  0  0  0
   53.0797  155.6065   -2.6516 N   0  0  0  0  0  0  0  0  0  0  0  0
   57.6498  159.0733   -4.0515 N   0  0  0  0  0  0  0  0  0  0  0  0
   54.2247  157.5101   -2.0556 O   0  0  0  0  0  0  0  0  0  0  0  0
   56.3167  156.0848   -5.4455 O   0  0  0  0  0  0  0  0  0  0  0  0
   52.8736  154.8032   -3.2624 H   0  0  0  0  0  0  0  0  0  0  0  0
   52.4007  155.7776   -1.8963 H   0  0  0  0  0  0  0  0  0  0  0  0
   57.4096  159.6904   -3.2842 H   0  0  0  0  0  0  0  0  0  0  0  0
   58.4401  159.3476   -4.6255 H   0  0  0  0  0  0  0  0  0  0  0  0
   56.6542  155.6044   -6.2203 H   0  0  0  0  0  0  0  0  0  0  0  0
  1  3  1  0  0  0  0
  1  4  1  0  0  0  0
  1  5  2  0  0  0  0
  2  4  2  0  0  0  0
  2  7  1  0  0  0  0
  2  9  1  0  0  0  0
  3  6  2  0  0  0  0
  3  8  1  0  0  0  0
  5  9  1  0  0  0  0
  6 10  1  0  0  0  0
  7 11  1  0  0  0  0
  7 12  1  0  0  0  0
  8 13  1  0  0  0  0
  8 14  1  0  0  0  0
 10 15  1  0  0  0  0
M  END
> <FRED Chemgauss4 score>
-4.313593

$$$$
C38803740	P58769686
  -OEChem-05122015083D

 13 13  0     0  0  0  0  0  0999 V2000
   54.1238  157.6535   -4.1716 C   0  0  0  0  0  0  0  0  0  0  0  0
   53.9456  155.8993   -3.0896 C   0  0  0  0  0  0  0  0  0  0  0  0
   53.9626  159.0173   -4.5739 C   0  0  0  0  0  0  0  0  0  0  0  0
   53.5280  157.1396   -3.0568 N   0  0  0  0  0  0  0  0  0  0  0  0
   54.8742  156.8002   -4.8750 N   0  0  0  0  0  0  0  0  0  0  0  0
   53.6936  154.8806   -2.2380 N   0  0  0  0  0  0  0  0  0  0  0  0
   52.9027  159.3424   -5.4334 N   0  0  0  0  0  0  0  0  0  0  0  0
   54.7446  159.9252   -4.1980 O   0  0  0  0  0  0  0  0  0  0  0  0
   54.7544  155.6122   -4.1431 O   0  0  0  0  0  0  0  0  0  0  0  0
   53.1333  155.0083   -1.3832 H   0  0  0  0  0  0  0  0  0  0  0  0
   54.1263  153.9529   -2.3524 H   0  0  0  0  0  0  0  0  0  0  0  0
   52.2813  158.6040   -5.7452 H   0  0  0  0  0  0  0  0  0  0  0  0
   52.7359  160.2908   -5.7540 H   0  0  0  0  0  0  0  0  0  0  0  0
  1  3  1  0  0  0  0
  1  4  1  0  0  0  0
  1  5  2  0  0  0  0
  2  4  2  0  0  0  0
  2  6  1  0  0  0  0
  2  9  1  0  0  0  0
  3  7  1  0  0  0  0
  3  8  2  0  0  0  0
  5  9  1  0  0  0  0
  6 10  1  0  0  0  0
  6 11  1  0  0  0  0
  7 12  1  0  0  0  0
  7 13  1  0  0  0  0
M  END
> <FRED Chemgauss4 score>
-4.303132

$$$$
C91299939	P142817028
  -OEChem-05122015083D

 47 48  0     1  0  0  0  0  0999 V2000
   55.6476  158.8315   -2.0445 C   0  0  0  0  0  0  0  0  0  0  0  0
   60.7987  163.4251   -4.3144 C   0  0  0  0  0  0  0  0  0  0  0  0
   56.6522  161.9708   -2.2098 C   0  0  0  0  0  0  0  0  0  0  0  0
   58.7536  160.7976   -1.5023 C   0  0  0  0  0  0  0  0  0  0  0  0
   57.3456  162.3279   -3.5284 C   0  0  0  0  0  0  0  0  0  0  0  0
   59.3769  161.1943   -2.8444 C   0  0  0  0  0  0  0  0  0  0  0  0
   52.8578  157.7169   -6.2796 C   0  0  0  0  0  0  0  0  0  0  0  0
   54.1697  158.9461   -4.6874 C   0  0  0  0  0  0  0  0  0  0  0  0
   52.9035  156.5100   -5.3509 C   0  0  0  0  0  0  0  0  0  0  0  0
   57.2284  160.6997   -1.5815 C   0  0  0  0  0  0  0  0  0  0  0  0
   54.1863  157.7132   -3.7798 C   0  0  2  0  0  0  0  0  0  0  0  0
   63.0514  163.6545   -5.3568 C   0  0  0  0  0  0  0  0  0  0  0  0
   55.4756  157.6436   -2.9731 C   0  0  0  0  0  0  0  0  0  0  0  0
   59.4399  162.8396   -4.6026 C   0  0  0  0  0  0  0  0  0  0  0  0
   52.9546  158.9553   -5.5056 N   0  0  0  0  0  0  0  0  0  0  0  0
   58.7985  162.4473   -3.3479 N   0  0  0  0  0  0  0  0  0  0  0  0
   56.8186  159.5234   -2.3153 N   0  0  0  0  0  0  0  0  0  0  0  0
   61.6796  163.1997   -5.3625 N   0  0  0  0  0  0  0  0  0  0  0  0
   54.8355  159.1246   -1.1712 O   0  0  0  0  0  0  0  0  0  0  0  0
   61.0702  164.0246   -3.2775 O   0  0  0  0  0  0  0  0  0  0  0  0
   54.1031  156.5245   -4.5753 O   0  0  0  0  0  0  0  0  0  0  0  0
   56.7757  162.8044   -1.5060 H   0  0  0  0  0  0  0  0  0  0  0  0
   55.5750  161.8597   -2.3832 H   0  0  0  0  0  0  0  0  0  0  0  0
   59.1834  159.8454   -1.1686 H   0  0  0  0  0  0  0  0  0  0  0  0
   59.0244  161.5490   -0.7489 H   0  0  0  0  0  0  0  0  0  0  0  0
   57.1055  161.5762   -4.2917 H   0  0  0  0  0  0  0  0  0  0  0  0
   56.9370  163.2843   -3.8774 H   0  0  0  0  0  0  0  0  0  0  0  0
   60.4559  161.3205   -2.6925 H   0  0  0  0  0  0  0  0  0  0  0  0
   59.2460  160.3818   -3.5711 H   0  0  0  0  0  0  0  0  0  0  0  0
   53.6850  157.6707   -6.9982 H   0  0  0  0  0  0  0  0  0  0  0  0
   51.9217  157.7141   -6.8473 H   0  0  0  0  0  0  0  0  0  0  0  0
   54.2014  159.8587   -4.0824 H   0  0  0  0  0  0  0  0  0  0  0  0
   55.0476  158.9533   -5.3457 H   0  0  0  0  0  0  0  0  0  0  0  0
   52.0356  156.4814   -4.6809 H   0  0  0  0  0  0  0  0  0  0  0  0
   52.8983  155.5868   -5.9389 H   0  0  0  0  0  0  0  0  0  0  0  0
   56.8191  160.5750   -0.5728 H   0  0  0  0  0  0  0  0  0  0  0  0
   53.3386  157.7329   -3.0828 H   0  0  0  0  0  0  0  0  0  0  0  0
   63.1170  164.6560   -5.7899 H   0  0  0  0  0  0  0  0  0  0  0  0
   63.6770  162.9759   -5.9431 H   0  0  0  0  0  0  0  0  0  0  0  0
   63.4343  163.6878   -4.3333 H   0  0  0  0  0  0  0  0  0  0  0  0
   56.3335  157.6089   -3.6544 H   0  0  0  0  0  0  0  0  0  0  0  0
   55.4831  156.7279   -2.3713 H   0  0  0  0  0  0  0  0  0  0  0  0
   58.8176  163.5841   -5.1078 H   0  0  0  0  0  0  0  0  0  0  0  0
   59.5438  161.9592   -5.2435 H   0  0  0  0  0  0  0  0  0  0  0  0
   52.9794  159.7521   -6.1410 H   0  0  0  0  0  0  0  0  0  0  0  0
   57.4165  159.1879   -3.0645 H   0  0  0  0  0  0  0  0  0  0  0  0
   61.3436  162.6897   -6.1742 H   0  0  0  0  0  0  0  0  0  0  0  0
  1 13  1  0  0  0  0
  1 17  1  0  0  0  0
  1 19  2  0  0  0  0
  2 14  1  0  0  0  0
  2 18  1  0  0  0  0
  2 20  2  0  0  0  0
  3  5  1  0  0  0  0
  3 10  1  0  0  0  0
  4  6  1  0  0  0  0
  4 10  1  0  0  0  0
  5 16  1  0  0  0  0
  6 16  1  0  0  0  0
  7  9  1  0  0  0  0
  7 15  1  0  0  0  0
  8 11  1  0  0  0  0
  8 15  1  0  0  0  0
  9 21  1  0  0  0  0
 10 17  1  0  0  0  0
 11 13  1  0  0  0  0
 11 21  1  0  0  0  0
 12 18  1  0  0  0  0
 14 16  1  0  0  0  0
  3 22  1  0  0  0  0
  3 23  1  0  0  0  0
  4 24  1  0  0  0  0
  4 25  1  0  0  0  0
  5 26  1  0  0  0  0
  5 27  1  0  0  0  0
  6 28  1  0  0  0  0
  6 29  1  0  0  0  0
  7 30  1  0  0  0  0
  7 31  1  0  0  0  0
  8 32  1  0  0  0  0
  8 33  1  0  0  0  0
  9 34  1  0  0  0  0
  9 35  1  0  0  0  0
 10 36  1  0  0  0  0
 11 37  1  0  0  0  0
 12 38  1  0  0  0  0
 12 39  1  0  0  0  0
 12 40  1  0  0  0  0
 13 41  1  0  0  0  0
 13 42  1  0  0  0  0
 14 43  1  0  0  0  0
 14 44  1  0  0  0  0
 15 45  1  0  0  0  0
 17 46  1  0  0  0  0
 18 47  1  0  0  0  0
M  END
> <FRED Chemgauss4 score>
-4.298243

$$$$
C36850793	P90345064
  -OEChem-05122015083D

 25 25  0     1  0  0  0  0  0999 V2000
   58.4688  155.8379   -6.9366 C   0  0  0  0  0  0  0  0  0  0  0  0
   56.7203  154.6341   -6.0285 C   0  0  0  0  0  0  0  0  0  0  0  0
   57.6005  156.8618   -6.2601 C   0  0  0  0  0  0  0  0  0  0  0  0
   56.3887  156.0811   -5.7734 C   0  0  1  0  0  0  0  0  0  0  0  0
   58.5313  153.3677   -7.1797 C   0  0  0  0  0  0  0  0  0  0  0  0
   53.8499  156.5440   -4.4562 C   0  0  0  0  0  0  0  0  0  0  0  0
   54.0146  155.8831   -5.8144 C   0  0  0  0  0  0  0  0  0  0  0  0
   57.9218  154.5948   -6.7042 N   0  0  0  0  0  0  0  0  0  0  0  0
   52.6968  156.0534   -3.7502 N   0  0  0  0  0  0  0  0  0  0  0  0
   55.1947  156.3675   -6.5174 N   0  0  0  0  0  0  0  0  0  0  0  0
   59.4884  156.1069   -7.5567 O   0  0  0  0  0  0  0  0  0  0  0  0
   55.9925  153.6943   -5.7378 O   0  0  0  0  0  0  0  0  0  0  0  0
   58.1519  157.2929   -5.4182 H   0  0  0  0  0  0  0  0  0  0  0  0
   57.3492  157.6631   -6.9620 H   0  0  0  0  0  0  0  0  0  0  0  0
   56.2237  156.2303   -4.7042 H   0  0  0  0  0  0  0  0  0  0  0  0
   59.2245  152.9774   -6.4301 H   0  0  0  0  0  0  0  0  0  0  0  0
   59.0823  153.5535   -8.1057 H   0  0  0  0  0  0  0  0  0  0  0  0
   57.7629  152.6147   -7.3743 H   0  0  0  0  0  0  0  0  0  0  0  0
   53.7383  157.6288   -4.5508 H   0  0  0  0  0  0  0  0  0  0  0  0
   54.7225  156.3368   -3.8290 H   0  0  0  0  0  0  0  0  0  0  0  0
   54.1317  154.8013   -5.6976 H   0  0  0  0  0  0  0  0  0  0  0  0
   53.1485  156.0710   -6.4571 H   0  0  0  0  0  0  0  0  0  0  0  0
   51.8479  155.8724   -4.2618 H   0  0  0  0  0  0  0  0  0  0  0  0
   52.6848  156.0908   -2.7434 H   0  0  0  0  0  0  0  0  0  0  0  0
   55.1161  157.3753   -6.6503 H   0  0  0  0  0  0  0  0  0  0  0  0
  1  3  1  0  0  0  0
  1  8  1  0  0  0  0
  1 11  2  0  0  0  0
  2  4  1  0  0  0  0
  2  8  1  0  0  0  0
  2 12  2  0  0  0  0
  3  4  1  0  0  0  0
  4 10  1  0  0  0  0
  5  8  1  0  0  0  0
  6  7  1  0  0  0  0
  6  9  1  0  0  0  0
  7 10  1  0  0  0  0
  3 13  1  0  0  0  0
  3 14  1  0  0  0  0
  4 15  1  0  0  0  0
  5 16  1  0  0  0  0
  5 17  1  0  0  0  0
  5 18  1  0  0  0  0
  6 19  1  0  0  0  0
  6 20  1  0  0  0  0
  7 21  1  0  0  0  0
  7 22  1  0  0  0  0
  9 23  1  0  0  0  0
  9 24  1  0  0  0  0
 10 25  1  0  0  0  0
M  END
> <FRED Chemgauss4 score>
-4.291006

$$$$
C18717275	P131855685
  -OEChem-05122015083D

 22 23  0     1  0  0  0  0  0999 V2000
   54.7898  156.0678   -2.6437 C   0  0  0  0  0  0  0  0  0  0  0  0
   54.8249  157.5782   -2.5045 C   0  0  0  0  0  0  0  0  0  0  0  0
   54.5716  158.0667   -3.9414 C   0  0  0  0  0  0  0  0  0  0  0  0
   55.1391  155.0828   -6.1858 C   0  0  0  0  0  0  0  0  0  0  0  0
   54.9110  154.5956   -4.7515 C   0  0  0  0  0  0  0  0  0  0  0  0
   55.2394  156.9893   -4.7737 C   0  0  2  0  0  0  0  0  0  0  0  0
   54.7282  156.5741   -6.1568 C   0  0  2  0  0  0  0  0  0  0  0  0
   55.0483  155.8080   -3.9742 N   0  0  0  0  0  0  0  0  0  0  0  0
   53.2797  156.6930   -6.3039 N   0  0  0  0  0  0  0  0  0  0  0  0
   54.5748  155.2751   -1.7415 O   0  0  0  0  0  0  0  0  0  0  0  0
   54.0499  157.9275   -1.8181 H   0  0  0  0  0  0  0  0  0  0  0  0
   55.8138  157.8800   -2.1454 H   0  0  0  0  0  0  0  0  0  0  0  0
   53.4903  158.1139   -4.1104 H   0  0  0  0  0  0  0  0  0  0  0  0
   54.9862  159.0620   -4.1247 H   0  0  0  0  0  0  0  0  0  0  0  0
   56.2071  155.0107   -6.4293 H   0  0  0  0  0  0  0  0  0  0  0  0
   54.5937  154.4835   -6.9217 H   0  0  0  0  0  0  0  0  0  0  0  0
   53.9019  154.2000   -4.5996 H   0  0  0  0  0  0  0  0  0  0  0  0
   55.6430  153.8524   -4.4247 H   0  0  0  0  0  0  0  0  0  0  0  0
   56.3227  157.1673   -4.8183 H   0  0  0  0  0  0  0  0  0  0  0  0
   55.2177  157.1423   -6.9542 H   0  0  0  0  0  0  0  0  0  0  0  0
   52.8218  156.0809   -6.9435 H   0  0  0  0  0  0  0  0  0  0  0  0
   52.8349  157.5002   -5.9241 H   0  0  0  0  0  0  0  0  0  0  0  0
  1  2  1  0  0  0  0
  1  8  1  0  0  0  0
  1 10  2  0  0  0  0
  2  3  1  0  0  0  0
  3  6  1  0  0  0  0
  4  5  1  0  0  0  0
  4  7  1  0  0  0  0
  5  8  1  0  0  0  0
  6  7  1  0  0  0  0
  6  8  1  0  0  0  0
  7  9  1  0  0  0  0
  2 11  1  0  0  0  0
  2 12  1  0  0  0  0
  3 13  1  0  0  0  0
  3 14  1  0  0  0  0
  4 15  1  0  0  0  0
  4 16  1  0  0  0  0
  5 17  1  0  0  0  0
  5 18  1  0  0  0  0
  6 19  1  0  0  0  0
  7 20  1  0  0  0  0
  9 21  1  0  0  0  0
  9 22  1  0  0  0  0
M  END
> <FRED Chemgauss4 score>
-4.289002

$$$$
C97761753	P155131654
  -OEChem-05122015083D

 46 48  0     1  0  0  0  0  0999 V2000
   53.6683  155.2212   -4.1380 C   0  0  0  0  0  0  0  0  0  0  0  0
   53.1360  155.5473   -2.8762 C   0  0  0  0  0  0  0  0  0  0  0  0
   54.1508  156.4114   -4.6251 C   0  0  0  0  0  0  0  0  0  0  0  0
   59.3805  155.5947   -8.5825 C   0  0  0  0  0  0  0  0  0  0  0  0
   59.2924  157.1196   -8.4053 C   0  0  0  0  0  0  0  0  0  0  0  0
   59.1846  155.4582   -7.0636 C   0  0  0  0  0  0  0  0  0  0  0  0
   56.9186  157.5394   -4.7428 C   0  0  0  0  0  0  0  0  0  0  0  0
   57.0176  156.9439   -7.1879 C   0  0  0  0  0  0  0  0  0  0  0  0
   58.4392  157.4662   -4.6996 C   0  0  0  0  0  0  0  0  0  0  0  0
   56.3609  156.6190   -5.8379 C   0  0  2  0  0  0  0  0  0  0  0  0
   58.5441  156.8806   -7.0598 C   0  0  0  0  0  0  0  0  0  0  0  0
   52.4848  154.6408   -1.9156 C   0  0  0  0  0  0  0  0  0  0  0  0
   55.0851  159.1778   -2.5436 C   0  0  0  0  0  0  0  0  0  0  0  0
   54.2072  158.7499   -3.7071 C   0  0  0  0  0  0  0  0  0  0  0  0
   54.8420  156.7446   -5.9298 C   0  0  1  0  0  0  0  0  0  0  0  0
   53.2680  156.8430   -2.5800 N   0  0  0  0  0  0  0  0  0  0  0  0
   53.8887  157.3416   -3.6627 N   0  0  0  0  0  0  0  0  0  0  0  0
   52.9330  156.1559   -7.1444 N   0  0  0  0  0  0  0  0  0  0  0  0
   54.3409  155.9327   -7.0152 N   0  0  0  0  0  0  0  0  0  0  0  0
   58.9782  157.7548   -5.9875 O   0  0  0  0  0  0  0  0  0  0  0  0
   53.6976  154.2582   -4.6272 H   0  0  0  0  0  0  0  0  0  0  0  0
   58.5607  155.1705   -9.1730 H   0  0  0  0  0  0  0  0  0  0  0  0
   60.3287  155.2174   -8.9734 H   0  0  0  0  0  0  0  0  0  0  0  0
   60.2686  157.6051   -8.2873 H   0  0  0  0  0  0  0  0  0  0  0  0
   58.7358  157.6459   -9.1861 H   0  0  0  0  0  0  0  0  0  0  0  0
   58.5408  154.6303   -6.7541 H   0  0  0  0  0  0  0  0  0  0  0  0
   60.1257  155.3956   -6.5043 H   0  0  0  0  0  0  0  0  0  0  0  0
   56.5047  157.2701   -3.7647 H   0  0  0  0  0  0  0  0  0  0  0  0
   56.6169  158.5731   -4.9552 H   0  0  0  0  0  0  0  0  0  0  0  0
   56.6562  156.2462   -7.9531 H   0  0  0  0  0  0  0  0  0  0  0  0
   56.7209  157.9503   -7.5111 H   0  0  0  0  0  0  0  0  0  0  0  0
   58.8339  158.2032   -3.9937 H   0  0  0  0  0  0  0  0  0  0  0  0
   58.7807  156.4763   -4.3777 H   0  0  0  0  0  0  0  0  0  0  0  0
   56.5997  155.5820   -5.5684 H   0  0  0  0  0  0  0  0  0  0  0  0
   53.2190  154.1999   -1.2195 H   0  0  0  0  0  0  0  0  0  0  0  0
   51.7193  155.1563   -1.3084 H   0  0  0  0  0  0  0  0  0  0  0  0
   51.9608  153.8076   -2.4175 H   0  0  0  0  0  0  0  0  0  0  0  0
   54.5957  158.9783   -1.5844 H   0  0  0  0  0  0  0  0  0  0  0  0
   55.2967  160.2499   -2.6023 H   0  0  0  0  0  0  0  0  0  0  0  0
   56.0392  158.6404   -2.5496 H   0  0  0  0  0  0  0  0  0  0  0  0
   54.7050  158.9534   -4.6619 H   0  0  0  0  0  0  0  0  0  0  0  0
   53.2647  159.3091   -3.7060 H   0  0  0  0  0  0  0  0  0  0  0  0
   54.6074  157.7801   -6.2063 H   0  0  0  0  0  0  0  0  0  0  0  0
   52.6400  156.8616   -6.4692 H   0  0  0  0  0  0  0  0  0  0  0  0
   52.7392  156.5523   -8.0631 H   0  0  0  0  0  0  0  0  0  0  0  0
   54.4985  154.9417   -6.8153 H   0  0  0  0  0  0  0  0  0  0  0  0
  1  2  1  0  0  0  0
  1  3  2  0  0  0  0
  2 12  1  0  0  0  0
  2 16  2  0  0  0  0
  3 15  1  0  0  0  0
  3 17  1  0  0  0  0
  4  5  1  0  0  0  0
  4  6  1  0  0  0  0
  5 11  1  0  0  0  0
  6 11  1  0  0  0  0
  7  9  1  0  0  0  0
  7 10  1  0  0  0  0
  8 10  1  0  0  0  0
  8 11  1  0  0  0  0
  9 20  1  0  0  0  0
 10 15  1  0  0  0  0
 11 20  1  0  0  0  0
 13 14  1  0  0  0  0
 14 17  1  0  0  0  0
 15 19  1  0  0  0  0
 16 17  1  0  0  0  0
 18 19  1  0  0  0  0
  1 21  1  0  0  0  0
  4 22  1  0  0  0  0
  4 23  1  0  0  0  0
  5 24  1  0  0  0  0
  5 25  1  0  0  0  0
  6 26  1  0  0  0  0
  6 27  1  0  0  0  0
  7 28  1  0  0  0  0
  7 29  1  0  0  0  0
  8 30  1  0  0  0  0
  8 31  1  0  0  0  0
  9 32  1  0  0  0  0
  9 33  1  0  0  0  0
 10 34  1  0  0  0  0
 12 35  1  0  0  0  0
 12 36  1  0  0  0  0
 12 37  1  0  0  0  0
 13 38  1  0  0  0  0
 13 39  1  0  0  0  0
 13 40  1  0  0  0  0
 14 41  1  0  0  0  0
 14 42  1  0  0  0  0
 15 43  1  0  0  0  0
 18 44  1  0  0  0  0
 18 45  1  0  0  0  0
 19 46  1  0  0  0  0
M  END
> <FRED Chemgauss4 score>
-4.288077

$$$$
C11536079	P74672762
  -OEChem-05122015083D

 21 21  0     1  0  0  0  0  0999 V2000
   54.5112  157.4026   -4.4550 C   0  0  0  0  0  0  0  0  0  0  0  0
   53.9368  156.5937   -5.5385 C   0  0  0  0  0  0  0  0  0  0  0  0
   55.8917  157.0665   -4.9305 C   0  0  0  0  0  0  0  0  0  0  0  0
   55.2898  156.2126   -6.1099 C   0  0  1  0  0  0  0  0  0  0  0  0
   54.8500  151.7878   -8.1981 C   0  0  0  0  0  0  0  0  0  0  0  0
   55.5520  152.6245   -7.1380 C   0  0  0  0  0  0  0  0  0  0  0  0
   54.9164  153.9974   -6.9550 C   0  0  0  0  0  0  0  0  0  0  0  0
   52.7142  156.3610   -5.8226 N   0  0  0  0  0  0  0  0  0  0  0  0
   55.5972  154.7885   -5.9677 N   0  0  0  0  0  0  0  0  0  0  0  0
   54.0656  158.0507   -3.5682 O   0  0  0  0  0  0  0  0  0  0  0  0
   56.9242  157.4178   -4.4351 O   0  0  0  0  0  0  0  0  0  0  0  0
   55.4798  156.6249   -7.1040 H   0  0  0  0  0  0  0  0  0  0  0  0
   53.7972  151.6324   -7.9414 H   0  0  0  0  0  0  0  0  0  0  0  0
   54.8904  152.2962   -9.1669 H   0  0  0  0  0  0  0  0  0  0  0  0
   55.3252  150.8087   -8.3131 H   0  0  0  0  0  0  0  0  0  0  0  0
   56.5997  152.7559   -7.4326 H   0  0  0  0  0  0  0  0  0  0  0  0
   55.5484  152.0782   -6.1873 H   0  0  0  0  0  0  0  0  0  0  0  0
   54.9553  154.5564   -7.8952 H   0  0  0  0  0  0  0  0  0  0  0  0
   53.8680  153.9128   -6.6521 H   0  0  0  0  0  0  0  0  0  0  0  0
   52.6557  155.7509   -6.6496 H   0  0  0  0  0  0  0  0  0  0  0  0
   56.6128  154.6681   -6.0545 H   0  0  0  0  0  0  0  0  0  0  0  0
  1  2  1  0  0  0  0
  1  3  1  0  0  0  0
  1 10  2  0  0  0  0
  2  4  1  0  0  0  0
  2  8  2  0  0  0  0
  3  4  1  0  0  0  0
  3 11  2  0  0  0  0
  4  9  1  0  0  0  0
  5  6  1  0  0  0  0
  6  7  1  0  0  0  0
  7  9  1  0  0  0  0
  4 12  1  0  0  0  0
  5 13  1  0  0  0  0
  5 14  1  0  0  0  0
  5 15  1  0  0  0  0
  6 16  1  0  0  0  0
  6 17  1  0  0  0  0
  7 18  1  0  0  0  0
  7 19  1  0  0  0  0
  8 20  1  0  0  0  0
  9 21  1  0  0  0  0
M  END
> <FRED Chemgauss4 score>
-4.287545

$$$$
C36437532	P130761434
  -OEChem-05122015083D

 22 22  0     1  0  0  0  0  0999 V2000
   55.8090  155.3269   -4.7123 C   0  0  0  0  0  0  0  0  0  0  0  0
   55.8936  155.7771   -6.1505 C   0  0  0  0  0  0  0  0  0  0  0  0
   55.5240  156.6369   -4.0009 C   0  0  2  0  0  0  0  0  0  0  0  0
   54.8372  156.8706   -6.2227 C   0  0  1  0  0  0  0  0  0  0  0  0
   54.8185  156.4615   -2.6704 C   0  0  0  0  0  0  0  0  0  0  0  0
   53.4783  156.3530   -6.6730 C   0  0  0  0  0  0  0  0  0  0  0  0
   54.5940  157.7327   -2.0600 N   0  0  0  0  0  0  0  0  0  0  0  0
   54.6974  157.4023   -4.8927 O   0  0  0  0  0  0  0  0  0  0  0  0
   53.0419  155.3654   -5.7555 O   0  0  0  0  0  0  0  0  0  0  0  0
   54.9774  154.6225   -4.5926 H   0  0  0  0  0  0  0  0  0  0  0  0
   56.7218  154.8407   -4.3569 H   0  0  0  0  0  0  0  0  0  0  0  0
   56.8834  156.2126   -6.3353 H   0  0  0  0  0  0  0  0  0  0  0  0
   55.7451  154.9680   -6.8712 H   0  0  0  0  0  0  0  0  0  0  0  0
   56.4538  157.1999   -3.8555 H   0  0  0  0  0  0  0  0  0  0  0  0
   55.1557  157.6785   -6.8899 H   0  0  0  0  0  0  0  0  0  0  0  0
   55.4386  155.8604   -2.0127 H   0  0  0  0  0  0  0  0  0  0  0  0
   53.8617  155.9743   -2.8287 H   0  0  0  0  0  0  0  0  0  0  0  0
   53.5562  155.9092   -7.6667 H   0  0  0  0  0  0  0  0  0  0  0  0
   52.7536  157.1685   -6.6929 H   0  0  0  0  0  0  0  0  0  0  0  0
   55.2883  158.4638   -2.1541 H   0  0  0  0  0  0  0  0  0  0  0  0
   53.8549  157.8368   -1.3756 H   0  0  0  0  0  0  0  0  0  0  0  0
   52.1751  155.0526   -6.0652 H   0  0  0  0  0  0  0  0  0  0  0  0
  1  2  1  0  0  0  0
  1  3  1  0  0  0  0
  2  4  1  0  0  0  0
  3  5  1  0  0  0  0
  3  8  1  0  0  0  0
  4  6  1  0  0  0  0
  4  8  1  0  0  0  0
  5  7  1  0  0  0  0
  6  9  1  0  0  0  0
  1 10  1  0  0  0  0
  1 11  1  0  0  0  0
  2 12  1  0  0  0  0
  2 13  1  0  0  0  0
  3 14  1  0  0  0  0
  4 15  1  0  0  0  0
  5 16  1  0  0  0  0
  5 17  1  0  0  0  0
  6 18  1  0  0  0  0
  6 19  1  0  0  0  0
  7 20  1  0  0  0  0
  7 21  1  0  0  0  0
  9 22  1  0  0  0  0
M  END
> <FRED Chemgauss4 score>
-4.278256

$$$$
C36763891	P58578312
  -OEChem-05122015083D

 24 24  0     1  0  0  0  0  0999 V2000
   55.4988  158.4364   -2.4512 C   0  0  0  0  0  0  0  0  0  0  0  0
   56.9658  159.3628   -1.3246 C   0  0  0  0  0  0  0  0  0  0  0  0
   54.2739  158.6463   -4.6529 C   0  0  0  0  0  0  0  0  0  0  0  0
   58.0005  161.4658   -0.3969 C   0  0  0  0  0  0  0  0  0  0  0  0
   59.4374  159.7769   -1.5961 C   0  0  0  0  0  0  0  0  0  0  0  0
   54.8454  157.7222   -3.5536 C   0  0  2  0  0  0  0  0  0  0  0  0
   58.2069  159.9815   -0.7088 C   0  0  0  0  0  0  0  0  0  0  0  0
   56.8263  158.7513   -2.4736 N   0  0  0  0  0  0  0  0  0  0  0  0
   54.8290  158.8203   -1.3604 N   0  0  0  0  0  0  0  0  0  0  0  0
   53.7853  156.8217   -3.1017 N   0  0  0  0  0  0  0  0  0  0  0  0
   55.8214  159.4477   -0.5968 O   0  0  0  0  0  0  0  0  0  0  0  0
   53.5586  159.3534   -4.2187 H   0  0  0  0  0  0  0  0  0  0  0  0
   55.0585  159.2229   -5.1556 H   0  0  0  0  0  0  0  0  0  0  0  0
   53.7527  158.0703   -5.4258 H   0  0  0  0  0  0  0  0  0  0  0  0
   57.7892  162.0490   -1.2998 H   0  0  0  0  0  0  0  0  0  0  0  0
   58.8966  161.8891    0.0699 H   0  0  0  0  0  0  0  0  0  0  0  0
   57.1631  161.6074    0.2955 H   0  0  0  0  0  0  0  0  0  0  0  0
   59.3010  160.2573   -2.5714 H   0  0  0  0  0  0  0  0  0  0  0  0
   59.6131  158.7097   -1.7698 H   0  0  0  0  0  0  0  0  0  0  0  0
   60.3436  160.1931   -1.1426 H   0  0  0  0  0  0  0  0  0  0  0  0
   55.5560  157.0417   -4.0741 H   0  0  0  0  0  0  0  0  0  0  0  0
   58.4116  159.4779    0.2453 H   0  0  0  0  0  0  0  0  0  0  0  0
   53.9248  156.3274   -2.2484 H   0  0  0  0  0  0  0  0  0  0  0  0
   53.0685  156.5820   -3.7503 H   0  0  0  0  0  0  0  0  0  0  0  0
  1  6  1  0  0  0  0
  1  8  1  0  0  0  0
  1  9  2  0  0  0  0
  2  7  1  0  0  0  0
  2  8  2  0  0  0  0
  2 11  1  0  0  0  0
  3  6  1  0  0  0  0
  4  7  1  0  0  0  0
  5  7  1  0  0  0  0
  6 10  1  0  0  0  0
  9 11  1  0  0  0  0
  3 12  1  0  0  0  0
  3 13  1  0  0  0  0
  3 14  1  0  0  0  0
  4 15  1  0  0  0  0
  4 16  1  0  0  0  0
  4 17  1  0  0  0  0
  5 18  1  0  0  0  0
  5 19  1  0  0  0  0
  5 20  1  0  0  0  0
  6 21  1  0  0  0  0
  7 22  1  0  0  0  0
 10 23  1  0  0  0  0
 10 24  1  0  0  0  0
M  END
> <FRED Chemgauss4 score>
-4.271250

$$$$
C82987404	P129754672
  -OEChem-05122015083D

 33 33  0     1  0  0  0  0  0999 V2000
   57.5462  159.6466   -0.4731 C   0  0  0  0  0  0  0  0  0  0  0  0
   56.1901  159.4379   -1.1597 C   0  0  0  0  0  0  0  0  0  0  0  0
   57.3131  159.0325   -3.3134 C   0  0  0  0  0  0  0  0  0  0  0  0
   58.3987  160.7480   -1.0844 C   0  0  0  0  0  0  0  0  0  0  0  0
   58.4107  160.0954   -3.3855 C   0  0  0  0  0  0  0  0  0  0  0  0
   54.4377  161.1043   -4.5586 C   0  0  0  0  0  0  0  0  0  0  0  0
   55.0284  157.4590   -3.1204 C   0  0  0  0  0  0  0  0  0  0  0  0
   54.9003  158.9887   -3.1357 C   0  0  2  0  0  0  0  0  0  0  0  0
   54.5502  159.5785   -4.5247 C   0  0  1  0  0  0  0  0  0  0  0  0
   56.1406  159.5703   -2.6208 N   0  0  1  0  0  0  0  0  0  0  0  0
   53.2863  159.0083   -5.0032 N   0  0  0  0  0  0  0  0  0  0  0  0
   59.1517  160.2368   -2.1807 O   0  0  0  0  0  0  0  0  0  0  0  0
   53.7300  156.8731   -3.1003 O   0  0  0  0  0  0  0  0  0  0  0  0
   57.3859  159.8798    0.5835 H   0  0  0  0  0  0  0  0  0  0  0  0
   58.1020  158.7036   -0.4858 H   0  0  0  0  0  0  0  0  0  0  0  0
   55.8786  158.3960   -0.8948 H   0  0  0  0  0  0  0  0  0  0  0  0
   55.4063  160.0768   -0.6709 H   0  0  0  0  0  0  0  0  0  0  0  0
   57.0554  158.7058   -4.3110 H   0  0  0  0  0  0  0  0  0  0  0  0
   57.7069  158.2021   -2.7424 H   0  0  0  0  0  0  0  0  0  0  0  0
   57.7635  161.5183   -1.4786 H   0  0  0  0  0  0  0  0  0  0  0  0
   59.0643  161.1637   -0.3547 H   0  0  0  0  0  0  0  0  0  0  0  0
   59.0840  159.9539   -4.2656 H   0  0  0  0  0  0  0  0  0  0  0  0
   57.9247  161.0787   -3.5650 H   0  0  0  0  0  0  0  0  0  0  0  0
   53.6711  161.4637   -3.8653 H   0  0  0  0  0  0  0  0  0  0  0  0
   54.1512  161.4490   -5.5592 H   0  0  0  0  0  0  0  0  0  0  0  0
   55.3846  161.5910   -4.3021 H   0  0  0  0  0  0  0  0  0  0  0  0
   55.5360  157.0968   -4.0197 H   0  0  0  0  0  0  0  0  0  0  0  0
   55.5805  157.1034   -2.2437 H   0  0  0  0  0  0  0  0  0  0  0  0
   54.1141  159.2742   -2.4244 H   0  0  0  0  0  0  0  0  0  0  0  0
   55.3310  159.2822   -5.2373 H   0  0  0  0  0  0  0  0  0  0  0  0
   53.0871  158.0632   -4.7686 H   0  0  0  0  0  0  0  0  0  0  0  0
   52.7866  159.5110   -5.7000 H   0  0  0  0  0  0  0  0  0  0  0  0
   53.8601  155.9120   -3.0912 H   0  0  0  0  0  0  0  0  0  0  0  0
  1  2  1  0  0  0  0
  1  4  1  0  0  0  0
  2 10  1  0  0  0  0
  3  5  1  0  0  0  0
  3 10  1  0  0  0  0
  4 12  1  0  0  0  0
  5 12  1  0  0  0  0
  6  9  1  0  0  0  0
  7  8  1  0  0  0  0
  7 13  1  0  0  0  0
  8  9  1  0  0  0  0
  8 10  1  0  0  0  0
  9 11  1  0  0  0  0
  1 14  1  0  0  0  0
  1 15  1  0  0  0  0
  2 16  1  0  0  0  0
  2 17  1  0  0  0  0
  3 18  1  0  0  0  0
  3 19  1  0  0  0  0
  4 20  1  0  0  0  0
  4 21  1  0  0  0  0
  5 22  1  0  0  0  0
  5 23  1  0  0  0  0
  6 24  1  0  0  0  0
  6 25  1  0  0  0  0
  6 26  1  0  0  0  0
  7 27  1  0  0  0  0
  7 28  1  0  0  0  0
  8 29  1  0  0  0  0
  9 30  1  0  0  0  0
 11 31  1  0  0  0  0
 11 32  1  0  0  0  0
 13 33  1  0  0  0  0
M  END
> <FRED Chemgauss4 score>
-4.263576

$$$$
C82510425	P128945533
  -OEChem-05122015083D

 24 25  0     1  0  0  0  0  0999 V2000
   55.6098  158.8464   -3.3162 C   0  0  0  0  0  0  0  0  0  0  0  0
   56.3447  158.5489   -4.4395 C   0  0  0  0  0  0  0  0  0  0  0  0
   54.6658  157.1452   -4.1794 C   0  0  0  0  0  0  0  0  0  0  0  0
   57.0479  155.5212   -6.1537 C   0  0  0  0  0  0  0  0  0  0  0  0
   57.5929  156.8029   -6.7015 C   0  0  0  0  0  0  0  0  0  0  0  0
   56.1561  156.7376   -6.2393 C   0  0  0  0  0  0  0  0  0  0  0  0
   53.1610  155.3602   -3.2057 C   0  0  0  0  0  0  0  0  0  0  0  0
   53.7470  155.9789   -4.4731 C   0  0  1  0  0  0  0  0  0  0  0  0
   54.5663  157.9688   -3.1597 N   0  0  0  0  0  0  0  0  0  0  0  0
   55.7281  157.4566   -4.9818 N   0  0  0  0  0  0  0  0  0  0  0  0
   52.6855  156.3572   -5.3776 N   0  0  0  0  0  0  0  0  0  0  0  0
   55.7781  159.6484   -2.6120 H   0  0  0  0  0  0  0  0  0  0  0  0
   57.2191  159.0045   -4.8831 H   0  0  0  0  0  0  0  0  0  0  0  0
   56.8643  154.7118   -6.8497 H   0  0  0  0  0  0  0  0  0  0  0  0
   57.3949  155.2034   -5.1779 H   0  0  0  0  0  0  0  0  0  0  0  0
   58.3067  157.3466   -6.0948 H   0  0  0  0  0  0  0  0  0  0  0  0
   57.7757  156.8593   -7.7677 H   0  0  0  0  0  0  0  0  0  0  0  0
   55.3827  156.7511   -6.9762 H   0  0  0  0  0  0  0  0  0  0  0  0
   52.5815  156.0968   -2.6385 H   0  0  0  0  0  0  0  0  0  0  0  0
   52.4961  154.5263   -3.4575 H   0  0  0  0  0  0  0  0  0  0  0  0
   53.9401  154.9623   -2.5456 H   0  0  0  0  0  0  0  0  0  0  0  0
   54.3131  155.1982   -4.9960 H   0  0  0  0  0  0  0  0  0  0  0  0
   51.8467  155.8053   -5.3979 H   0  0  0  0  0  0  0  0  0  0  0  0
   52.8809  157.0259   -6.1010 H   0  0  0  0  0  0  0  0  0  0  0  0
  1  2  2  0  0  0  0
  1  9  1  0  0  0  0
  2 10  1  0  0  0  0
  3  8  1  0  0  0  0
  3  9  2  0  0  0  0
  3 10  1  0  0  0  0
  4  5  1  0  0  0  0
  4  6  1  0  0  0  0
  5  6  1  0  0  0  0
  6 10  1  0  0  0  0
  7  8  1  0  0  0  0
  8 11  1  0  0  0  0
  1 12  1  0  0  0  0
  2 13  1  0  0  0  0
  4 14  1  0  0  0  0
  4 15  1  0  0  0  0
  5 16  1  0  0  0  0
  5 17  1  0  0  0  0
  6 18  1  0  0  0  0
  7 19  1  0  0  0  0
  7 20  1  0  0  0  0
  7 21  1  0  0  0  0
  8 22  1  0  0  0  0
 11 23  1  0  0  0  0
 11 24  1  0  0  0  0
M  END
> <FRED Chemgauss4 score>
-4.257473

$$$$
C18739352	P149102511
  -OEChem-05122015083D

 21 22  0     1  0  0  0  0  0999 V2000
   53.7999  155.9383   -3.2922 C   0  0  0  0  0  0  0  0  0  0  0  0
   54.7723  155.8554   -4.2859 C   0  0  0  0  0  0  0  0  0  0  0  0
   55.6468  156.8610   -4.0018 C   0  0  0  0  0  0  0  0  0  0  0  0
   56.7900  156.9849   -4.9148 C   0  0  0  0  0  0  0  0  0  0  0  0
   56.3034  156.0468   -6.0784 C   0  0  0  0  0  0  0  0  0  0  0  0
   55.1976  155.0935   -5.4743 C   0  0  2  0  0  0  0  0  0  0  0  0
   55.7882  158.6259   -2.2277 C   0  0  0  0  0  0  0  0  0  0  0  0
   54.0469  156.9481   -2.4372 N   0  0  0  0  0  0  0  0  0  0  0  0
   55.1965  157.4986   -2.9035 N   0  0  0  0  0  0  0  0  0  0  0  0
   54.0949  154.8894   -6.3955 N   0  0  0  0  0  0  0  0  0  0  0  0
   52.9249  155.3247   -3.1351 H   0  0  0  0  0  0  0  0  0  0  0  0
   56.9580  158.0045   -5.2706 H   0  0  0  0  0  0  0  0  0  0  0  0
   57.7050  156.5909   -4.4617 H   0  0  0  0  0  0  0  0  0  0  0  0
   55.8724  156.6754   -6.8706 H   0  0  0  0  0  0  0  0  0  0  0  0
   57.1285  155.4839   -6.5273 H   0  0  0  0  0  0  0  0  0  0  0  0
   55.6478  154.1384   -5.1819 H   0  0  0  0  0  0  0  0  0  0  0  0
   55.3786  159.5376   -2.6705 H   0  0  0  0  0  0  0  0  0  0  0  0
   55.5493  158.5779   -1.1617 H   0  0  0  0  0  0  0  0  0  0  0  0
   56.8741  158.5931   -2.3532 H   0  0  0  0  0  0  0  0  0  0  0  0
   53.1938  154.6664   -6.0205 H   0  0  0  0  0  0  0  0  0  0  0  0
   54.3002  154.7751   -7.3688 H   0  0  0  0  0  0  0  0  0  0  0  0
  1  2  1  0  0  0  0
  1  8  2  0  0  0  0
  2  3  2  0  0  0  0
  2  6  1  0  0  0  0
  3  4  1  0  0  0  0
  3  9  1  0  0  0  0
  4  5  1  0  0  0  0
  5  6  1  0  0  0  0
  6 10  1  0  0  0  0
  7  9  1  0  0  0  0
  8  9  1  0  0  0  0
  1 11  1  0  0  0  0
  4 12  1  0  0  0  0
  4 13  1  0  0  0  0
  5 14  1  0  0  0  0
  5 15  1  0  0  0  0
  6 16  1  0  0  0  0
  7 17  1  0  0  0  0
  7 18  1  0  0  0  0
  7 19  1  0  0  0  0
 10 20  1  0  0  0  0
 10 21  1  0  0  0  0
M  END
> <FRED Chemgauss4 score>
-4.252662

$$$$
C28531649	P41966202
  -OEChem-05122015083D

 20 20  0     1  0  0  0  0  0999 V2000
   57.0731  156.3894   -5.7087 C   0  0  0  0  0  0  0  0  0  0  0  0
   56.2474  157.0352   -4.5967 C   0  0  0  0  0  0  0  0  0  0  0  0
   56.0933  155.5794   -6.5500 C   0  0  0  0  0  0  0  0  0  0  0  0
   55.4154  155.9029   -3.9866 C   0  0  1  0  0  0  0  0  0  0  0  0
   54.2468  156.3980   -3.1580 C   0  0  0  0  0  0  0  0  0  0  0  0
   53.5129  155.2927   -2.6297 N   0  0  0  0  0  0  0  0  0  0  0  0
   55.2594  153.5242   -5.1237 O   0  0  0  0  0  0  0  0  0  0  0  0
   53.5846  155.2943   -5.8210 O   0  0  0  0  0  0  0  0  0  0  0  0
   54.9118  154.9045   -5.3915 S   0  0  0  0  0  0  0  0  0  0  0  0
   57.5967  157.1355   -6.3138 H   0  0  0  0  0  0  0  0  0  0  0  0
   57.8268  155.7248   -5.2692 H   0  0  0  0  0  0  0  0  0  0  0  0
   56.8877  157.5093   -3.8461 H   0  0  0  0  0  0  0  0  0  0  0  0
   55.5982  157.8097   -5.0236 H   0  0  0  0  0  0  0  0  0  0  0  0
   55.5480  156.2251   -7.2447 H   0  0  0  0  0  0  0  0  0  0  0  0
   56.5812  154.7699   -7.0967 H   0  0  0  0  0  0  0  0  0  0  0  0
   56.0639  155.2658   -3.3734 H   0  0  0  0  0  0  0  0  0  0  0  0
   53.5873  156.9896   -3.7856 H   0  0  0  0  0  0  0  0  0  0  0  0
   54.6154  157.0002   -2.3337 H   0  0  0  0  0  0  0  0  0  0  0  0
   53.3982  154.4549   -3.1867 H   0  0  0  0  0  0  0  0  0  0  0  0
   52.9443  155.4185   -1.8013 H   0  0  0  0  0  0  0  0  0  0  0  0
  1  2  1  0  0  0  0
  1  3  1  0  0  0  0
  2  4  1  0  0  0  0
  3  9  1  0  0  0  0
  4  5  1  0  0  0  0
  4  9  1  0  0  0  0
  5  6  1  0  0  0  0
  7  9  2  0  0  0  0
  8  9  2  0  0  0  0
  1 10  1  0  0  0  0
  1 11  1  0  0  0  0
  2 12  1  0  0  0  0
  2 13  1  0  0  0  0
  3 14  1  0  0  0  0
  3 15  1  0  0  0  0
  4 16  1  0  0  0  0
  5 17  1  0  0  0  0
  5 18  1  0  0  0  0
  6 19  1  0  0  0  0
  6 20  1  0  0  0  0
M  END
> <FRED Chemgauss4 score>
-4.251375

$$$$
C82596055	P129090670
  -OEChem-05122015083D

 29 28  0     1  0  0  0  0  0999 V2000
   54.7644  155.0399   -5.7259 C   0  0  0  0  0  0  0  0  0  0  0  0
   55.1800  159.3858   -1.9754 C   0  0  0  0  0  0  0  0  0  0  0  0
   53.5291  157.0192   -6.2994 C   0  0  0  0  0  0  0  0  0  0  0  0
   53.4193  156.1393   -4.0663 C   0  0  0  0  0  0  0  0  0  0  0  0
   53.4801  158.5058   -5.9976 C   0  0  0  0  0  0  0  0  0  0  0  0
   55.1613  157.0866   -2.4611 C   0  0  0  0  0  0  0  0  0  0  0  0
   54.2450  155.9071   -2.7949 C   0  0  1  0  0  0  0  0  0  0  0  0
   53.3561  155.6536   -1.6792 N   0  0  0  0  0  0  0  0  0  0  0  0
   54.2648  156.3271   -5.2399 N   0  0  1  0  0  0  0  0  0  0  0  0
   52.7935  158.7161   -4.7703 O   0  0  0  0  0  0  0  0  0  0  0  0
   54.3707  158.2531   -2.2560 O   0  0  0  0  0  0  0  0  0  0  0  0
   55.3131  154.5260   -4.9323 H   0  0  0  0  0  0  0  0  0  0  0  0
   55.4350  155.1914   -6.5761 H   0  0  0  0  0  0  0  0  0  0  0  0
   53.9317  154.4072   -6.0447 H   0  0  0  0  0  0  0  0  0  0  0  0
   54.5434  160.2609   -1.8239 H   0  0  0  0  0  0  0  0  0  0  0  0
   55.8654  159.5605   -2.8087 H   0  0  0  0  0  0  0  0  0  0  0  0
   55.7557  159.1951   -1.0666 H   0  0  0  0  0  0  0  0  0  0  0  0
   52.5228  156.5919   -6.3537 H   0  0  0  0  0  0  0  0  0  0  0  0
   54.0462  156.8397   -7.2469 H   0  0  0  0  0  0  0  0  0  0  0  0
   52.7869  157.0266   -3.9415 H   0  0  0  0  0  0  0  0  0  0  0  0
   52.7458  155.2919   -4.2408 H   0  0  0  0  0  0  0  0  0  0  0  0
   52.9313  159.0303   -6.7860 H   0  0  0  0  0  0  0  0  0  0  0  0
   54.4847  158.9336   -5.9168 H   0  0  0  0  0  0  0  0  0  0  0  0
   55.7393  156.8961   -1.5502 H   0  0  0  0  0  0  0  0  0  0  0  0
   55.8536  157.2993   -3.2812 H   0  0  0  0  0  0  0  0  0  0  0  0
   54.8454  154.9950   -2.9015 H   0  0  0  0  0  0  0  0  0  0  0  0
   53.6977  155.8038   -0.7488 H   0  0  0  0  0  0  0  0  0  0  0  0
   52.5067  155.1482   -1.8468 H   0  0  0  0  0  0  0  0  0  0  0  0
   52.7847  159.6744   -4.6157 H   0  0  0  0  0  0  0  0  0  0  0  0
  1  9  1  0  0  0  0
  2 11  1  0  0  0  0
  3  5  1  0  0  0  0
  3  9  1  0  0  0  0
  4  7  1  0  0  0  0
  4  9  1  0  0  0  0
  5 10  1  0  0  0  0
  6  7  1  0  0  0  0
  6 11  1  0  0  0  0
  7  8  1  0  0  0  0
  1 12  1  0  0  0  0
  1 13  1  0  0  0  0
  1 14  1  0  0  0  0
  2 15  1  0  0  0  0
  2 16  1  0  0  0  0
  2 17  1  0  0  0  0
  3 18  1  0  0  0  0
  3 19  1  0  0  0  0
  4 20  1  0  0  0  0
  4 21  1  0  0  0  0
  5 22  1  0  0  0  0
  5 23  1  0  0  0  0
  6 24  1  0  0  0  0
  6 25  1  0  0  0  0
  7 26  1  0  0  0  0
  8 27  1  0  0  0  0
  8 28  1  0  0  0  0
 10 29  1  0  0  0  0
M  END
> <FRED Chemgauss4 score>
-4.250463

$$$$
C83947683	P131340971
  -OEChem-05122015083D

 21 21  0     1  0  0  0  0  0999 V2000
   53.1974  156.5511   -3.4374 C   0  0  0  0  0  0  0  0  0  0  0  0
   55.3733  156.6213   -3.7465 C   0  0  0  0  0  0  0  0  0  0  0  0
   54.2157  156.1688   -4.3311 C   0  0  0  0  0  0  0  0  0  0  0  0
   55.8948  153.9600   -6.5759 C   0  0  0  0  0  0  0  0  0  0  0  0
   55.4030  155.1764   -6.3107 C   0  0  0  0  0  0  0  0  0  0  0  0
   55.8641  157.8534   -1.6205 C   0  0  0  0  0  0  0  0  0  0  0  0
   54.0700  155.4207   -5.6467 C   0  0  2  0  0  0  0  0  0  0  0  0
   53.6668  157.1966   -2.3665 N   0  0  0  0  0  0  0  0  0  0  0  0
   54.9929  157.2233   -2.5834 N   0  0  0  0  0  0  0  0  0  0  0  0
   53.1563  156.0986   -6.5762 N   0  0  0  0  0  0  0  0  0  0  0  0
   52.1323  156.3867   -3.5193 H   0  0  0  0  0  0  0  0  0  0  0  0
   56.4098  156.5663   -4.0509 H   0  0  0  0  0  0  0  0  0  0  0  0
   56.8620  153.8512   -7.0543 H   0  0  0  0  0  0  0  0  0  0  0  0
   55.3467  153.0588   -6.3250 H   0  0  0  0  0  0  0  0  0  0  0  0
   56.0021  156.0419   -6.5866 H   0  0  0  0  0  0  0  0  0  0  0  0
   55.9672  158.9060   -1.8970 H   0  0  0  0  0  0  0  0  0  0  0  0
   55.4295  157.7614   -0.6213 H   0  0  0  0  0  0  0  0  0  0  0  0
   56.8380  157.3561   -1.6347 H   0  0  0  0  0  0  0  0  0  0  0  0
   53.6090  154.4466   -5.4359 H   0  0  0  0  0  0  0  0  0  0  0  0
   52.3786  156.5789   -6.1889 H   0  0  0  0  0  0  0  0  0  0  0  0
   53.2365  155.8802   -7.5415 H   0  0  0  0  0  0  0  0  0  0  0  0
  1  3  1  0  0  0  0
  1  8  2  0  0  0  0
  2  3  2  0  0  0  0
  2  9  1  0  0  0  0
  3  7  1  0  0  0  0
  4  5  2  0  0  0  0
  5  7  1  0  0  0  0
  6  9  1  0  0  0  0
  7 10  1  0  0  0  0
  8  9  1  0  0  0  0
  1 11  1  0  0  0  0
  2 12  1  0  0  0  0
  4 13  1  0  0  0  0
  4 14  1  0  0  0  0
  5 15  1  0  0  0  0
  6 16  1  0  0  0  0
  6 17  1  0  0  0  0
  6 18  1  0  0  0  0
  7 19  1  0  0  0  0
 10 20  1  0  0  0  0
 10 21  1  0  0  0  0
M  END
> <FRED Chemgauss4 score>
-4.237974

$$$$
C70495500	P108751999
  -OEChem-05122015083D

 28 28  0     1  0  0  0  0  0999 V2000
   55.0770  157.6032   -2.8162 C   0  0  0  0  0  0  0  0  0  0  0  0
   56.9792  159.7569   -3.3353 C   0  0  0  0  0  0  0  0  0  0  0  0
   56.9399  159.1658   -1.9386 C   0  0  0  0  0  0  0  0  0  0  0  0
   56.7828  158.6422   -4.3442 C   0  0  0  0  0  0  0  0  0  0  0  0
   55.6110  158.4739   -1.6849 C   0  0  1  0  0  0  0  0  0  0  0  0
   55.9478  155.8231   -5.3970 C   0  0  0  0  0  0  0  0  0  0  0  0
   53.6257  156.7038   -4.9880 C   0  0  0  0  0  0  0  0  0  0  0  0
   55.0890  157.0692   -5.2249 C   0  0  1  0  0  0  0  0  0  0  0  0
   55.5926  157.8336   -4.0915 N   0  0  0  0  0  0  0  0  0  0  0  0
   54.5585  159.4193   -1.4036 N   0  0  0  0  0  0  0  0  0  0  0  0
   54.1528  156.8168   -2.5844 O   0  0  0  0  0  0  0  0  0  0  0  0
   53.0185  156.3614   -6.2287 O   0  0  0  0  0  0  0  0  0  0  0  0
   56.1957  160.5118   -3.4534 H   0  0  0  0  0  0  0  0  0  0  0  0
   57.9417  160.2533   -3.5040 H   0  0  0  0  0  0  0  0  0  0  0  0
   57.7713  158.4503   -1.8181 H   0  0  0  0  0  0  0  0  0  0  0  0
   57.1141  159.9674   -1.1983 H   0  0  0  0  0  0  0  0  0  0  0  0
   56.6777  159.0591   -5.3505 H   0  0  0  0  0  0  0  0  0  0  0  0
   57.6590  157.9882   -4.3360 H   0  0  0  0  0  0  0  0  0  0  0  0
   55.7034  157.7988   -0.8138 H   0  0  0  0  0  0  0  0  0  0  0  0
   55.8833  155.1793   -4.5138 H   0  0  0  0  0  0  0  0  0  0  0  0
   57.0009  156.0824   -5.5543 H   0  0  0  0  0  0  0  0  0  0  0  0
   55.6189  155.2405   -6.2647 H   0  0  0  0  0  0  0  0  0  0  0  0
   53.5471  155.8347   -4.3264 H   0  0  0  0  0  0  0  0  0  0  0  0
   53.0669  157.5356   -4.5454 H   0  0  0  0  0  0  0  0  0  0  0  0
   55.1697  157.6967   -6.1198 H   0  0  0  0  0  0  0  0  0  0  0  0
   54.7864  160.2234   -0.8625 H   0  0  0  0  0  0  0  0  0  0  0  0
   53.6198  159.1379   -1.5799 H   0  0  0  0  0  0  0  0  0  0  0  0
   52.0947  156.1371   -6.0339 H   0  0  0  0  0  0  0  0  0  0  0  0
  1  5  1  0  0  0  0
  1  9  1  0  0  0  0
  1 11  2  0  0  0  0
  2  3  1  0  0  0  0
  2  4  1  0  0  0  0
  3  5  1  0  0  0  0
  4  9  1  0  0  0  0
  5 10  1  0  0  0  0
  6  8  1  0  0  0  0
  7  8  1  0  0  0  0
  7 12  1  0  0  0  0
  8  9  1  0  0  0  0
  2 13  1  0  0  0  0
  2 14  1  0  0  0  0
  3 15  1  0  0  0  0
  3 16  1  0  0  0  0
  4 17  1  0  0  0  0
  4 18  1  0  0  0  0
  5 19  1  0  0  0  0
  6 20  1  0  0  0  0
  6 21  1  0  0  0  0
  6 22  1  0  0  0  0
  7 23  1  0  0  0  0
  7 24  1  0  0  0  0
  8 25  1  0  0  0  0
 10 26  1  0  0  0  0
 10 27  1  0  0  0  0
 12 28  1  0  0  0  0
M  END
> <FRED Chemgauss4 score>
-4.237148

$$$$
C54497495	P82014190
  -OEChem-05122015083D

 23 23  0     1  0  0  0  0  0999 V2000
   58.7038  159.7878   -0.9950 C   0  0  0  0  0  0  0  0  0  0  0  0
   56.7666  159.0541   -1.6419 C   0  0  0  0  0  0  0  0  0  0  0  0
   54.7928  157.8798   -4.0064 C   0  0  0  0  0  0  0  0  0  0  0  0
   56.9082  159.8271    0.7503 C   0  0  0  0  0  0  0  0  0  0  0  0
   55.2964  158.6604   -1.6031 C   0  0  2  0  0  0  0  0  0  0  0  0
   55.0051  157.4708   -2.5503 C   0  0  1  0  0  0  0  0  0  0  0  0
   58.8166  159.4337   -2.2553 N   0  0  0  0  0  0  0  0  0  0  0  0
   57.5841  158.9669   -2.6668 N   0  0  0  0  0  0  0  0  0  0  0  0
   57.4297  159.5658   -0.5680 N   0  0  0  0  0  0  0  0  0  0  0  0
   54.4516  159.8208   -1.9065 N   0  0  0  0  0  0  0  0  0  0  0  0
   53.8108  156.8100   -2.1180 O   0  0  0  0  0  0  0  0  0  0  0  0
   59.4836  160.1956   -0.3679 H   0  0  0  0  0  0  0  0  0  0  0  0
   53.9967  158.6222   -4.1104 H   0  0  0  0  0  0  0  0  0  0  0  0
   54.5471  157.0102   -4.6258 H   0  0  0  0  0  0  0  0  0  0  0  0
   55.7132  158.3084   -4.4190 H   0  0  0  0  0  0  0  0  0  0  0  0
   56.5197  160.8489    0.7629 H   0  0  0  0  0  0  0  0  0  0  0  0
   56.1116  159.1124    0.9750 H   0  0  0  0  0  0  0  0  0  0  0  0
   57.7098  159.7126    1.4853 H   0  0  0  0  0  0  0  0  0  0  0  0
   55.0577  158.3420   -0.5795 H   0  0  0  0  0  0  0  0  0  0  0  0
   55.8111  156.7290   -2.5114 H   0  0  0  0  0  0  0  0  0  0  0  0
   54.7633  160.7127   -1.5984 H   0  0  0  0  0  0  0  0  0  0  0  0
   53.5239  159.6482   -2.2185 H   0  0  0  0  0  0  0  0  0  0  0  0
   53.7010  156.0439   -2.6993 H   0  0  0  0  0  0  0  0  0  0  0  0
  1  7  2  0  0  0  0
  1  9  1  0  0  0  0
  2  5  1  0  0  0  0
  2  8  2  0  0  0  0
  2  9  1  0  0  0  0
  3  6  1  0  0  0  0
  4  9  1  0  0  0  0
  5  6  1  0  0  0  0
  5 10  1  0  0  0  0
  6 11  1  0  0  0  0
  7  8  1  0  0  0  0
  1 12  1  0  0  0  0
  3 13  1  0  0  0  0
  3 14  1  0  0  0  0
  3 15  1  0  0  0  0
  4 16  1  0  0  0  0
  4 17  1  0  0  0  0
  4 18  1  0  0  0  0
  5 19  1  0  0  0  0
  6 20  1  0  0  0  0
 10 21  1  0  0  0  0
 10 22  1  0  0  0  0
 11 23  1  0  0  0  0
M  END
> <FRED Chemgauss4 score>
-4.234549

$$$$
C85190617	P133299831
  -OEChem-05122015083D

 23 24  0     0  0  0  0  0  0999 V2000
   54.3083  156.0980   -3.3558 C   0  0  0  0  0  0  0  0  0  0  0  0
   55.0263  158.1008   -3.2935 C   0  0  0  0  0  0  0  0  0  0  0  0
   55.2016  156.2007   -4.3960 C   0  0  0  0  0  0  0  0  0  0  0  0
   58.1381  157.9942   -4.9997 C   0  0  0  0  0  0  0  0  0  0  0  0
   57.4718  159.3191   -4.7979 C   0  0  0  0  0  0  0  0  0  0  0  0
   56.6580  158.1360   -5.2674 C   0  0  0  0  0  0  0  0  0  0  0  0
   55.6500  155.2211   -5.4007 C   0  0  0  0  0  0  0  0  0  0  0  0
   54.2035  157.2843   -2.6736 N   0  0  0  0  0  0  0  0  0  0  0  0
   55.6529  157.4894   -4.3437 N   0  0  0  0  0  0  0  0  0  0  0  0
   53.7519  154.8804   -6.7225 N   0  0  0  0  0  0  0  0  0  0  0  0
   55.0669  155.4430   -6.7074 N   0  0  0  0  0  0  0  0  0  0  0  0
   53.7339  155.2313   -3.0618 H   0  0  0  0  0  0  0  0  0  0  0  0
   55.2057  159.1347   -3.0315 H   0  0  0  0  0  0  0  0  0  0  0  0
   58.7961  157.8844   -5.8530 H   0  0  0  0  0  0  0  0  0  0  0  0
   58.4531  157.4501   -4.1175 H   0  0  0  0  0  0  0  0  0  0  0  0
   57.3394  159.6662   -3.7804 H   0  0  0  0  0  0  0  0  0  0  0  0
   57.6790  160.1032   -5.5159 H   0  0  0  0  0  0  0  0  0  0  0  0
   56.3200  158.1201   -6.2807 H   0  0  0  0  0  0  0  0  0  0  0  0
   56.7471  155.2397   -5.5368 H   0  0  0  0  0  0  0  0  0  0  0  0
   55.3988  154.1823   -5.1176 H   0  0  0  0  0  0  0  0  0  0  0  0
   53.5334  154.5069   -5.7992 H   0  0  0  0  0  0  0  0  0  0  0  0
   53.0735  155.6224   -6.8902 H   0  0  0  0  0  0  0  0  0  0  0  0
   55.6308  154.9816   -7.4243 H   0  0  0  0  0  0  0  0  0  0  0  0
  1  3  2  0  0  0  0
  1  8  1  0  0  0  0
  2  8  2  0  0  0  0
  2  9  1  0  0  0  0
  3  7  1  0  0  0  0
  3  9  1  0  0  0  0
  4  5  1  0  0  0  0
  4  6  1  0  0  0  0
  5  6  1  0  0  0  0
  6  9  1  0  0  0  0
  7 11  1  0  0  0  0
 10 11  1  0  0  0  0
  1 12  1  0  0  0  0
  2 13  1  0  0  0  0
  4 14  1  0  0  0  0
  4 15  1  0  0  0  0
  5 16  1  0  0  0  0
  5 17  1  0  0  0  0
  6 18  1  0  0  0  0
  7 19  1  0  0  0  0
  7 20  1  0  0  0  0
 10 21  1  0  0  0  0
 10 22  1  0  0  0  0
 11 23  1  0  0  0  0
M  END
> <FRED Chemgauss4 score>
-4.225703

$$$$
C86655371	P135660828
  -OEChem-05122015083D

 24 24  0     1  0  0  0  0  0999 V2000
   59.1237  153.8263   -6.9787 C   0  0  0  0  0  0  0  0  0  0  0  0
   57.6067  157.6621   -7.6233 C   0  0  0  0  0  0  0  0  0  0  0  0
   57.4543  155.5651   -6.4494 C   0  0  0  0  0  0  0  0  0  0  0  0
   59.0512  157.3258   -7.9796 C   0  0  0  0  0  0  0  0  0  0  0  0
   58.9110  155.2722   -6.8298 C   0  0  2  0  0  0  0  0  0  0  0  0
   55.8602  157.3199   -5.9955 C   0  0  0  0  0  0  0  0  0  0  0  0
   55.5736  157.0420   -4.5295 C   0  0  0  0  0  0  0  0  0  0  0  0
   59.2917  152.6843   -7.0963 N   0  0  0  0  0  0  0  0  0  0  0  0
   57.2447  157.0177   -6.3537 N   0  0  2  0  0  0  0  0  0  0  0  0
   54.2056  157.3212   -4.1858 N   0  0  0  0  0  0  0  0  0  0  0  0
   59.2243  155.9112   -8.0714 O   0  0  0  0  0  0  0  0  0  0  0  0
   57.5058  158.7502   -7.5400 H   0  0  0  0  0  0  0  0  0  0  0  0
   56.9428  157.3192   -8.4275 H   0  0  0  0  0  0  0  0  0  0  0  0
   56.7751  155.1351   -7.1992 H   0  0  0  0  0  0  0  0  0  0  0  0
   57.2264  155.0896   -5.4869 H   0  0  0  0  0  0  0  0  0  0  0  0
   59.3038  157.7552   -8.9543 H   0  0  0  0  0  0  0  0  0  0  0  0
   59.7555  157.7347   -7.2449 H   0  0  0  0  0  0  0  0  0  0  0  0
   59.5931  155.6506   -6.0572 H   0  0  0  0  0  0  0  0  0  0  0  0
   55.6795  158.3701   -6.2457 H   0  0  0  0  0  0  0  0  0  0  0  0
   55.2214  156.6961   -6.6283 H   0  0  0  0  0  0  0  0  0  0  0  0
   55.7531  155.9867   -4.3018 H   0  0  0  0  0  0  0  0  0  0  0  0
   56.2076  157.6506   -3.8768 H   0  0  0  0  0  0  0  0  0  0  0  0
   53.9731  157.5358   -3.2290 H   0  0  0  0  0  0  0  0  0  0  0  0
   53.4780  157.1023   -4.8479 H   0  0  0  0  0  0  0  0  0  0  0  0
  1  5  1  0  0  0  0
  1  8  3  0  0  0  0
  2  4  1  0  0  0  0
  2  9  1  0  0  0  0
  3  5  1  0  0  0  0
  3  9  1  0  0  0  0
  4 11  1  0  0  0  0
  5 11  1  0  0  0  0
  6  7  1  0  0  0  0
  6  9  1  0  0  0  0
  7 10  1  0  0  0  0
  2 12  1  0  0  0  0
  2 13  1  0  0  0  0
  3 14  1  0  0  0  0
  3 15  1  0  0  0  0
  4 16  1  0  0  0  0
  4 17  1  0  0  0  0
  5 18  1  0  0  0  0
  6 19  1  0  0  0  0
  6 20  1  0  0  0  0
  7 21  1  0  0  0  0
  7 22  1  0  0  0  0
 10 23  1  0  0  0  0
 10 24  1  0  0  0  0
M  END
> <FRED Chemgauss4 score>
-4.217928

$$$$
C13373498	P134222500
  -OEChem-05122015083D

 12 11  0     1  0  0  0  0  0999 V2000
   55.2291  153.6273   -6.2363 C   0  0  0  0  0  0  0  0  0  0  0  0
   53.2655  155.6759   -3.7629 C   0  0  0  0  0  0  0  0  0  0  0  0
   55.0111  154.6700   -5.2190 C   0  0  0  0  0  0  0  0  0  0  0  0
   53.5208  155.0028   -5.0496 C   0  0  2  0  0  0  0  0  0  0  0  0
   55.4029  152.8058   -7.0371 N   0  0  0  0  0  0  0  0  0  0  0  0
   53.0606  156.2041   -2.7501 N   0  0  0  0  0  0  0  0  0  0  0  0
   53.0961  155.8734   -6.1472 N   0  0  0  0  0  0  0  0  0  0  0  0
   55.5813  155.5677   -5.4913 H   0  0  0  0  0  0  0  0  0  0  0  0
   55.4232  154.3088   -4.2678 H   0  0  0  0  0  0  0  0  0  0  0  0
   52.9307  154.0789   -5.0946 H   0  0  0  0  0  0  0  0  0  0  0  0
   52.2896  156.4394   -6.0071 H   0  0  0  0  0  0  0  0  0  0  0  0
   53.4966  155.7190   -7.0453 H   0  0  0  0  0  0  0  0  0  0  0  0
  1  3  1  0  0  0  0
  1  5  3  0  0  0  0
  2  4  1  0  0  0  0
  2  6  3  0  0  0  0
  3  4  1  0  0  0  0
  4  7  1  0  0  0  0
  3  8  1  0  0  0  0
  3  9  1  0  0  0  0
  4 10  1  0  0  0  0
  7 11  1  0  0  0  0
  7 12  1  0  0  0  0
M  END
> <FRED Chemgauss4 score>
-4.215544

$$$$
C74241079	P115716858
  -OEChem-05122015083D

 34 34  0     1  0  0  0  0  0999 V2000
   53.7886  155.4732   -3.4575 C   0  0  0  0  0  0  0  0  0  0  0  0
   55.0408  157.0314   -2.7264 C   0  0  0  0  0  0  0  0  0  0  0  0
   54.5910  155.8273   -4.5165 C   0  0  0  0  0  0  0  0  0  0  0  0
   57.4376  154.4804   -6.0917 C   0  0  0  0  0  0  0  0  0  0  0  0
   55.4453  151.9406   -7.3552 C   0  0  0  0  0  0  0  0  0  0  0  0
   56.4115  157.5447   -4.7544 C   0  0  0  0  0  0  0  0  0  0  0  0
   56.3889  153.7397   -5.3339 C   0  0  0  0  0  0  0  0  0  0  0  0
   55.0930  153.3889   -7.3264 C   0  0  0  0  0  0  0  0  0  0  0  0
   53.3616  155.4838   -6.7251 C   0  0  0  0  0  0  0  0  0  0  0  0
   54.6710  155.3058   -5.9407 C   0  0  2  0  0  0  0  0  0  0  0  0
   54.0733  156.2267   -2.3463 N   0  0  0  0  0  0  0  0  0  0  0  0
   55.3875  156.8269   -4.0330 N   0  0  0  0  0  0  0  0  0  0  0  0
   52.7508  156.7635   -6.4761 N   0  0  0  0  0  0  0  0  0  0  0  0
   55.0754  153.9005   -5.9565 N   0  0  0  0  0  0  0  0  0  0  0  0
   53.0196  154.7144   -3.4364 H   0  0  0  0  0  0  0  0  0  0  0  0
   55.5238  157.7746   -2.1067 H   0  0  0  0  0  0  0  0  0  0  0  0
   57.5117  154.1100   -7.1199 H   0  0  0  0  0  0  0  0  0  0  0  0
   57.2213  155.5541   -6.1093 H   0  0  0  0  0  0  0  0  0  0  0  0
   58.4129  154.3391   -5.6106 H   0  0  0  0  0  0  0  0  0  0  0  0
   56.4390  151.7715   -6.9265 H   0  0  0  0  0  0  0  0  0  0  0  0
   54.7080  151.3485   -6.8022 H   0  0  0  0  0  0  0  0  0  0  0  0
   55.4589  151.5823   -8.3916 H   0  0  0  0  0  0  0  0  0  0  0  0
   57.3546  157.0071   -4.6257 H   0  0  0  0  0  0  0  0  0  0  0  0
   56.1425  157.5969   -5.8130 H   0  0  0  0  0  0  0  0  0  0  0  0
   56.4911  158.5596   -4.3547 H   0  0  0  0  0  0  0  0  0  0  0  0
   56.3203  154.1144   -4.3082 H   0  0  0  0  0  0  0  0  0  0  0  0
   56.6147  152.6697   -5.3038 H   0  0  0  0  0  0  0  0  0  0  0  0
   54.0997  153.5506   -7.7558 H   0  0  0  0  0  0  0  0  0  0  0  0
   55.8216  153.9768   -7.8923 H   0  0  0  0  0  0  0  0  0  0  0  0
   53.5494  155.4357   -7.8038 H   0  0  0  0  0  0  0  0  0  0  0  0
   52.6201  154.7149   -6.4833 H   0  0  0  0  0  0  0  0  0  0  0  0
   55.4544  155.8652   -6.4687 H   0  0  0  0  0  0  0  0  0  0  0  0
   51.7588  156.8676   -6.6133 H   0  0  0  0  0  0  0  0  0  0  0  0
   53.3385  157.5741   -6.3698 H   0  0  0  0  0  0  0  0  0  0  0  0
  1  3  2  0  0  0  0
  1 11  1  0  0  0  0
  2 11  2  0  0  0  0
  2 12  1  0  0  0  0
  3 10  1  0  0  0  0
  3 12  1  0  0  0  0
  4  7  1  0  0  0  0
  5  8  1  0  0  0  0
  6 12  1  0  0  0  0
  7 14  1  0  0  0  0
  8 14  1  0  0  0  0
  9 10  1  0  0  0  0
  9 13  1  0  0  0  0
 10 14  1  0  0  0  0
  1 15  1  0  0  0  0
  2 16  1  0  0  0  0
  4 17  1  0  0  0  0
  4 18  1  0  0  0  0
  4 19  1  0  0  0  0
  5 20  1  0  0  0  0
  5 21  1  0  0  0  0
  5 22  1  0  0  0  0
  6 23  1  0  0  0  0
  6 24  1  0  0  0  0
  6 25  1  0  0  0  0
  7 26  1  0  0  0  0
  7 27  1  0  0  0  0
  8 28  1  0  0  0  0
  8 29  1  0  0  0  0
  9 30  1  0  0  0  0
  9 31  1  0  0  0  0
 10 32  1  0  0  0  0
 13 33  1  0  0  0  0
 13 34  1  0  0  0  0
M  END
> <FRED Chemgauss4 score>
-4.210057

$$$$
C84117862	P131638256
  -OEChem-05122015083D

 24 24  0     1  0  0  0  0  0999 V2000
   54.7683  158.4967   -2.9659 C   0  0  0  0  0  0  0  0  0  0  0  0
   54.3187  157.0338   -4.7616 C   0  0  0  0  0  0  0  0  0  0  0  0
   56.5868  159.0688   -1.3373 C   0  0  0  0  0  0  0  0  0  0  0  0
   56.6884  155.4113   -5.7211 C   0  0  0  0  0  0  0  0  0  0  0  0
   55.3073  159.5210   -2.0485 C   0  0  0  0  0  0  0  0  0  0  0  0
   55.7237  156.1295   -6.6569 C   0  0  0  0  0  0  0  0  0  0  0  0
   54.3106  156.2570   -6.0627 C   0  0  1  0  0  0  0  0  0  0  0  0
   53.7348  157.7211   -2.7161 N   0  0  0  0  0  0  0  0  0  0  0  0
   53.4718  156.8624   -3.7690 N   0  0  0  0  0  0  0  0  0  0  0  0
   53.6913  154.9636   -5.8778 N   0  0  0  0  0  0  0  0  0  0  0  0
   55.5006  158.2480   -4.4968 S   0  0  0  0  0  0  0  0  0  0  0  0
   56.4179  158.1348   -0.7908 H   0  0  0  0  0  0  0  0  0  0  0  0
   56.9303  159.8228   -0.6221 H   0  0  0  0  0  0  0  0  0  0  0  0
   57.3916  158.8947   -2.0595 H   0  0  0  0  0  0  0  0  0  0  0  0
   56.3133  154.4169   -5.4591 H   0  0  0  0  0  0  0  0  0  0  0  0
   57.6618  155.2885   -6.2067 H   0  0  0  0  0  0  0  0  0  0  0  0
   56.8437  155.9765   -4.7969 H   0  0  0  0  0  0  0  0  0  0  0  0
   55.5215  160.4646   -2.5863 H   0  0  0  0  0  0  0  0  0  0  0  0
   54.5608  159.8005   -1.2803 H   0  0  0  0  0  0  0  0  0  0  0  0
   56.1363  157.1183   -6.8935 H   0  0  0  0  0  0  0  0  0  0  0  0
   55.6785  155.5708   -7.6005 H   0  0  0  0  0  0  0  0  0  0  0  0
   53.6753  156.7811   -6.7876 H   0  0  0  0  0  0  0  0  0  0  0  0
   53.8906  154.2334   -6.5372 H   0  0  0  0  0  0  0  0  0  0  0  0
   52.9305  154.8803   -5.2282 H   0  0  0  0  0  0  0  0  0  0  0  0
  1  5  1  0  0  0  0
  1  8  2  0  0  0  0
  1 11  1  0  0  0  0
  2  7  1  0  0  0  0
  2  9  2  0  0  0  0
  2 11  1  0  0  0  0
  3  5  1  0  0  0  0
  4  6  1  0  0  0  0
  6  7  1  0  0  0  0
  7 10  1  0  0  0  0
  8  9  1  0  0  0  0
  3 12  1  0  0  0  0
  3 13  1  0  0  0  0
  3 14  1  0  0  0  0
  4 15  1  0  0  0  0
  4 16  1  0  0  0  0
  4 17  1  0  0  0  0
  5 18  1  0  0  0  0
  5 19  1  0  0  0  0
  6 20  1  0  0  0  0
  6 21  1  0  0  0  0
  7 22  1  0  0  0  0
 10 23  1  0  0  0  0
 10 24  1  0  0  0  0
M  END
> <FRED Chemgauss4 score>
-4.208257

$$$$
C70624786	P108953588
  -OEChem-05122015083D

 24 23  0     1  0  0  0  0  0999 V2000
   55.5194  157.4207   -5.5837 C   0  0  0  0  0  0  0  0  0  0  0  0
   55.4019  153.1269   -6.5344 C   0  0  0  0  0  0  0  0  0  0  0  0
   54.0866  156.9162   -5.7136 C   0  0  0  0  0  0  0  0  0  0  0  0
   53.7836  156.3517   -3.2099 C   0  0  0  0  0  0  0  0  0  0  0  0
   54.4968  154.5671   -4.9130 C   0  0  0  0  0  0  0  0  0  0  0  0
   53.6795  155.8517   -4.6671 C   0  0  2  0  0  0  0  0  0  0  0  0
   53.3403  155.3731   -2.2247 N   0  0  0  0  0  0  0  0  0  0  0  0
   52.2981  155.5205   -4.8766 O   0  0  0  0  0  0  0  0  0  0  0  0
   54.6191  154.2894   -6.3036 O   0  0  0  0  0  0  0  0  0  0  0  0
   55.6691  157.8643   -4.5939 H   0  0  0  0  0  0  0  0  0  0  0  0
   55.7437  158.1878   -6.3311 H   0  0  0  0  0  0  0  0  0  0  0  0
   56.2428  156.6076   -5.6906 H   0  0  0  0  0  0  0  0  0  0  0  0
   55.4750  152.9434   -7.6092 H   0  0  0  0  0  0  0  0  0  0  0  0
   54.9386  152.2702   -6.0385 H   0  0  0  0  0  0  0  0  0  0  0  0
   56.4025  153.2851   -6.1252 H   0  0  0  0  0  0  0  0  0  0  0  0
   53.9878  156.4830   -6.7177 H   0  0  0  0  0  0  0  0  0  0  0  0
   53.4030  157.7728   -5.6720 H   0  0  0  0  0  0  0  0  0  0  0  0
   54.8163  156.6465   -2.9859 H   0  0  0  0  0  0  0  0  0  0  0  0
   53.2004  157.2718   -3.0873 H   0  0  0  0  0  0  0  0  0  0  0  0
   54.0132  153.6990   -4.4513 H   0  0  0  0  0  0  0  0  0  0  0  0
   55.5069  154.6489   -4.4992 H   0  0  0  0  0  0  0  0  0  0  0  0
   52.9936  155.7077   -1.3505 H   0  0  0  0  0  0  0  0  0  0  0  0
   53.5833  154.4156   -2.3686 H   0  0  0  0  0  0  0  0  0  0  0  0
   52.2414  155.1765   -5.7783 H   0  0  0  0  0  0  0  0  0  0  0  0
  1  3  1  0  0  0  0
  2  9  1  0  0  0  0
  3  6  1  0  0  0  0
  4  6  1  0  0  0  0
  4  7  1  0  0  0  0
  5  6  1  0  0  0  0
  5  9  1  0  0  0  0
  6  8  1  0  0  0  0
  1 10  1  0  0  0  0
  1 11  1  0  0  0  0
  1 12  1  0  0  0  0
  2 13  1  0  0  0  0
  2 14  1  0  0  0  0
  2 15  1  0  0  0  0
  3 16  1  0  0  0  0
  3 17  1  0  0  0  0
  4 18  1  0  0  0  0
  4 19  1  0  0  0  0
  5 20  1  0  0  0  0
  5 21  1  0  0  0  0
  7 22  1  0  0  0  0
  7 23  1  0  0  0  0
  8 24  1  0  0  0  0
M  END
> <FRED Chemgauss4 score>
-4.200663

$$$$
C20417407	P30428796
  -OEChem-05122015083D

 15 15  0     0  0  0  0  0  0999 V2000
   54.7959  156.1948   -4.4528 C   0  0  0  0  0  0  0  0  0  0  0  0
   54.9657  156.0875   -3.0871 C   0  0  0  0  0  0  0  0  0  0  0  0
   52.5960  155.3861   -4.1136 C   0  0  0  0  0  0  0  0  0  0  0  0
   53.5705  155.8323   -4.9836 C   0  0  0  0  0  0  0  0  0  0  0  0
   53.3117  155.9207   -6.4455 C   0  0  0  0  0  0  0  0  0  0  0  0
   53.9943  155.6476   -2.2594 N   0  0  0  0  0  0  0  0  0  0  0  0
   52.7900  155.2910   -2.7811 N   0  0  0  0  0  0  0  0  0  0  0  0
   53.1047  157.2779   -6.8882 N   0  0  0  0  0  0  0  0  0  0  0  0
   55.6029  156.5536   -5.0823 H   0  0  0  0  0  0  0  0  0  0  0  0
   55.9009  156.3563   -2.6105 H   0  0  0  0  0  0  0  0  0  0  0  0
   51.6135  155.0843   -4.4595 H   0  0  0  0  0  0  0  0  0  0  0  0
   54.1525  155.5121   -7.0262 H   0  0  0  0  0  0  0  0  0  0  0  0
   52.4204  155.3451   -6.7367 H   0  0  0  0  0  0  0  0  0  0  0  0
   52.5539  157.4423   -7.7132 H   0  0  0  0  0  0  0  0  0  0  0  0
   53.6710  158.0099   -6.4952 H   0  0  0  0  0  0  0  0  0  0  0  0
  1  2  1  0  0  0  0
  1  4  2  0  0  0  0
  2  6  2  0  0  0  0
  3  4  1  0  0  0  0
  3  7  2  0  0  0  0
  4  5  1  0  0  0  0
  5  8  1  0  0  0  0
  6  7  1  0  0  0  0
  1  9  1  0  0  0  0
  2 10  1  0  0  0  0
  3 11  1  0  0  0  0
  5 12  1  0  0  0  0
  5 13  1  0  0  0  0
  8 14  1  0  0  0  0
  8 15  1  0  0  0  0
M  END
> <FRED Chemgauss4 score>
-4.190973

$$$$
C01607176	P05730550
  -OEChem-05122015083D

 15 15  0     1  0  0  0  0  0999 V2000
   55.8651  155.7774   -5.1626 C   0  0  0  0  0  0  0  0  0  0  0  0
   54.0431  156.3403   -3.5467 C   0  0  0  0  0  0  0  0  0  0  0  0
   54.9578  156.2792   -6.2609 C   0  0  2  0  0  0  0  0  0  0  0  0
   53.5052  155.9886   -5.9425 C   0  0  2  0  0  0  0  0  0  0  0  0
   55.3308  155.9096   -3.8829 N   0  0  0  0  0  0  0  0  0  0  0  0
   53.1698  156.4586   -4.6169 N   0  0  0  0  0  0  0  0  0  0  0  0
   56.9918  155.3432   -5.3903 O   0  0  0  0  0  0  0  0  0  0  0  0
   53.7150  156.6012   -2.3884 O   0  0  0  0  0  0  0  0  0  0  0  0
   53.2718  154.5866   -6.0026 O   0  0  0  0  0  0  0  0  0  0  0  0
   55.2748  155.7174   -7.4582 F   0  0  0  0  0  0  0  0  0  0  0  0
   55.1224  157.3596   -6.3474 H   0  0  0  0  0  0  0  0  0  0  0  0
   52.8420  156.4732   -6.6655 H   0  0  0  0  0  0  0  0  0  0  0  0
   55.9433  155.6666   -3.1092 H   0  0  0  0  0  0  0  0  0  0  0  0
   52.2634  156.8903   -4.4646 H   0  0  0  0  0  0  0  0  0  0  0  0
   52.3340  154.4508   -5.7928 H   0  0  0  0  0  0  0  0  0  0  0  0
  1  3  1  0  0  0  0
  1  5  1  0  0  0  0
  1  7  2  0  0  0  0
  2  5  1  0  0  0  0
  2  6  1  0  0  0  0
  2  8  2  0  0  0  0
  3  4  1  0  0  0  0
  3 10  1  0  0  0  0
  4  6  1  0  0  0  0
  4  9  1  0  0  0  0
  3 11  1  0  0  0  0
  4 12  1  0  0  0  0
  5 13  1  0  0  0  0
  6 14  1  0  0  0  0
  9 15  1  0  0  0  0
M  END
> <FRED Chemgauss4 score>
-4.190818

$$$$
C38282056	P57853697
  -OEChem-05122015083D

 18 18  0     1  0  0  0  0  0999 V2000
   55.9660  156.0780   -6.2270 C   0  0  0  0  0  0  0  0  0  0  0  0
   55.6162  154.8128   -6.4805 C   0  0  0  0  0  0  0  0  0  0  0  0
   55.7907  156.5808   -4.8445 C   0  0  0  0  0  0  0  0  0  0  0  0
   54.9963  153.9108   -5.4549 C   0  0  1  0  0  0  0  0  0  0  0  0
   55.3446  155.5723   -3.7940 C   0  0  1  0  0  0  0  0  0  0  0  0
   54.6427  156.2551   -2.6308 C   0  0  0  0  0  0  0  0  0  0  0  0
   56.0592  157.7506   -4.5833 O   0  0  0  0  0  0  0  0  0  0  0  0
   54.4249  154.6628   -4.3840 O   0  0  0  0  0  0  0  0  0  0  0  0
   53.9816  153.1461   -6.1000 O   0  0  0  0  0  0  0  0  0  0  0  0
   53.5085  156.9468   -3.1255 O   0  0  0  0  0  0  0  0  0  0  0  0
   56.4005  156.7258   -6.9773 H   0  0  0  0  0  0  0  0  0  0  0  0
   55.7902  154.4113   -7.4752 H   0  0  0  0  0  0  0  0  0  0  0  0
   55.7511  153.2180   -5.0642 H   0  0  0  0  0  0  0  0  0  0  0  0
   56.2236  155.0302   -3.4247 H   0  0  0  0  0  0  0  0  0  0  0  0
   55.3151  156.9691   -2.1513 H   0  0  0  0  0  0  0  0  0  0  0  0
   54.3173  155.5135   -1.8986 H   0  0  0  0  0  0  0  0  0  0  0  0
   53.5950  152.5714   -5.4212 H   0  0  0  0  0  0  0  0  0  0  0  0
   52.9312  156.2845   -3.5412 H   0  0  0  0  0  0  0  0  0  0  0  0
  1  2  2  0  0  0  0
  1  3  1  0  0  0  0
  2  4  1  0  0  0  0
  3  5  1  0  0  0  0
  3  7  2  0  0  0  0
  4  8  1  0  0  0  0
  4  9  1  0  0  0  0
  5  6  1  0  0  0  0
  5  8  1  0  0  0  0
  6 10  1  0  0  0  0
  1 11  1  0  0  0  0
  2 12  1  0  0  0  0
  4 13  1  0  0  0  0
  5 14  1  0  0  0  0
  6 15  1  0  0  0  0
  6 16  1  0  0  0  0
  9 17  1  0  0  0  0
 10 18  1  0  0  0  0
M  END
> <FRED Chemgauss4 score>
-4.179743

$$$$
C91987417	P144000811
  -OEChem-05122015083D

 28 29  0     1  0  0  0  0  0999 V2000
   56.4778  158.0748   -4.4224 C   0  0  0  0  0  0  0  0  0  0  0  0
   54.7188  156.7956   -4.2517 C   0  0  0  0  0  0  0  0  0  0  0  0
   57.7117  158.6935   -4.9701 C   0  0  0  0  0  0  0  0  0  0  0  0
   56.0658  156.5125   -6.3497 C   0  0  0  0  0  0  0  0  0  0  0  0
   58.7891  157.6625   -5.3127 C   0  0  0  0  0  0  0  0  0  0  0  0
   57.4724  155.9190   -6.4289 C   0  0  0  0  0  0  0  0  0  0  0  0
   54.2549  154.3594   -4.7449 C   0  0  0  0  0  0  0  0  0  0  0  0
   53.6917  155.7839   -4.5631 C   0  0  2  0  0  0  0  0  0  0  0  0
   55.8877  158.3450   -3.2748 N   0  0  0  0  0  0  0  0  0  0  0  0
   54.7756  157.5352   -3.1677 N   0  0  0  0  0  0  0  0  0  0  0  0
   55.7642  157.1013   -5.0653 N   0  0  0  0  0  0  0  0  0  0  0  0
   58.5313  156.9216   -6.5483 N   0  0  0  0  0  0  0  0  0  0  0  0
   52.8951  156.1325   -5.7353 N   0  0  0  0  0  0  0  0  0  0  0  0
   57.4483  159.2375   -5.8855 H   0  0  0  0  0  0  0  0  0  0  0  0
   58.0998  159.4407   -4.2675 H   0  0  0  0  0  0  0  0  0  0  0  0
   55.9642  157.2857   -7.1181 H   0  0  0  0  0  0  0  0  0  0  0  0
   55.2979  155.7559   -6.5504 H   0  0  0  0  0  0  0  0  0  0  0  0
   59.7886  158.1184   -5.3323 H   0  0  0  0  0  0  0  0  0  0  0  0
   58.8038  156.9254   -4.4991 H   0  0  0  0  0  0  0  0  0  0  0  0
   57.6513  155.3775   -5.4908 H   0  0  0  0  0  0  0  0  0  0  0  0
   57.5472  155.1754   -7.2338 H   0  0  0  0  0  0  0  0  0  0  0  0
   55.0084  154.3461   -5.5400 H   0  0  0  0  0  0  0  0  0  0  0  0
   54.7233  153.9861   -3.8272 H   0  0  0  0  0  0  0  0  0  0  0  0
   53.4657  153.6488   -5.0153 H   0  0  0  0  0  0  0  0  0  0  0  0
   52.9418  155.7137   -3.7474 H   0  0  0  0  0  0  0  0  0  0  0  0
   58.2522  157.5921   -7.2673 H   0  0  0  0  0  0  0  0  0  0  0  0
   52.6657  157.0924   -5.8790 H   0  0  0  0  0  0  0  0  0  0  0  0
   52.4414  155.3955   -6.2311 H   0  0  0  0  0  0  0  0  0  0  0  0
  1  3  1  0  0  0  0
  1  9  2  0  0  0  0
  1 11  1  0  0  0  0
  2  8  1  0  0  0  0
  2 10  2  0  0  0  0
  2 11  1  0  0  0  0
  3  5  1  0  0  0  0
  4  6  1  0  0  0  0
  4 11  1  0  0  0  0
  5 12  1  0  0  0  0
  6 12  1  0  0  0  0
  7  8  1  0  0  0  0
  8 13  1  0  0  0  0
  9 10  1  0  0  0  0
  3 14  1  0  0  0  0
  3 15  1  0  0  0  0
  4 16  1  0  0  0  0
  4 17  1  0  0  0  0
  5 18  1  0  0  0  0
  5 19  1  0  0  0  0
  6 20  1  0  0  0  0
  6 21  1  0  0  0  0
  7 22  1  0  0  0  0
  7 23  1  0  0  0  0
  7 24  1  0  0  0  0
  8 25  1  0  0  0  0
 12 26  1  0  0  0  0
 13 27  1  0  0  0  0
 13 28  1  0  0  0  0
M  END
> <FRED Chemgauss4 score>
-4.168465

$$$$
C93895763	P147157618
  -OEChem-05122015083D

 48 49  0     1  0  0  0  0  0999 V2000
   57.1841  159.7943   -1.9463 C   0  0  0  0  0  0  0  0  0  0  0  0
   55.6142  158.7597   -0.4897 C   0  0  0  0  0  0  0  0  0  0  0  0
   56.2534  159.6899   -2.9740 C   0  0  0  0  0  0  0  0  0  0  0  0
   56.8662  159.3228   -0.6775 C   0  0  0  0  0  0  0  0  0  0  0  0
   55.0289  159.1102   -2.6835 C   0  0  0  0  0  0  0  0  0  0  0  0
   56.3740  163.7176   -5.4539 C   0  0  0  0  0  0  0  0  0  0  0  0
   56.9037  162.5664   -6.3165 C   0  0  0  0  0  0  0  0  0  0  0  0
   57.0494  162.5427   -3.4607 C   0  0  0  0  0  0  0  0  0  0  0  0
   57.5973  161.3718   -4.3024 C   0  0  1  0  0  0  0  0  0  0  0  0
   57.3801  156.4062   -6.1571 C   0  0  0  0  0  0  0  0  0  0  0  0
   55.4354  164.3295   -3.3195 C   0  0  0  0  0  0  0  0  0  0  0  0
   59.2490  162.4683   -5.7132 C   0  0  0  0  0  0  0  0  0  0  0  0
   58.5519  157.1458   -5.5321 C   0  0  0  0  0  0  0  0  0  0  0  0
   58.0744  158.1945   -4.5404 C   0  0  0  0  0  0  0  0  0  0  0  0
   56.6015  160.2027   -4.3489 C   0  0  1  0  0  0  0  0  0  0  0  0
   54.6841  158.6408   -1.4635 N   0  0  0  0  0  0  0  0  0  0  0  0
   55.9440  163.2311   -4.1384 N   0  0  1  0  0  0  0  0  0  0  0  0
   57.9621  161.7721   -5.6758 N   0  0  2  0  0  0  0  0  0  0  0  0
   54.0767  159.0022   -3.7279 N   0  0  0  0  0  0  0  0  0  0  0  0
   57.1759  159.1491   -5.2370 N   0  3  0  0  0  0  0  0  0  0  0  0
   57.9879  159.4342    0.6149 Cl  0  0  0  0  0  0  0  0  0  0  0  0
   58.1561  160.2428   -2.1379 H   0  0  0  0  0  0  0  0  0  0  0  0
   55.3064  158.3727    0.4770 H   0  0  0  0  0  0  0  0  0  0  0  0
   57.1792  164.4546   -5.3325 H   0  0  0  0  0  0  0  0  0  0  0  0
   55.5490  164.2235   -5.9770 H   0  0  0  0  0  0  0  0  0  0  0  0
   56.0457  161.9091   -6.5608 H   0  0  0  0  0  0  0  0  0  0  0  0
   57.2573  162.9705   -7.2884 H   0  0  0  0  0  0  0  0  0  0  0  0
   56.7286  162.1780   -2.4727 H   0  0  0  0  0  0  0  0  0  0  0  0
   57.8636  163.2605   -3.2870 H   0  0  0  0  0  0  0  0  0  0  0  0
   58.5203  160.9805   -3.8010 H   0  0  0  0  0  0  0  0  0  0  0  0
   56.7767  155.9261   -5.3803 H   0  0  0  0  0  0  0  0  0  0  0  0
   56.7341  157.0933   -6.7129 H   0  0  0  0  0  0  0  0  0  0  0  0
   57.7286  155.6294   -6.8453 H   0  0  0  0  0  0  0  0  0  0  0  0
   55.1185  163.9546   -2.3428 H   0  0  0  0  0  0  0  0  0  0  0  0
   54.5797  164.8018   -3.8097 H   0  0  0  0  0  0  0  0  0  0  0  0
   56.2141  165.0826   -3.1716 H   0  0  0  0  0  0  0  0  0  0  0  0
   60.0193  161.8600   -5.2321 H   0  0  0  0  0  0  0  0  0  0  0  0
   59.1767  163.4245   -5.1880 H   0  0  0  0  0  0  0  0  0  0  0  0
   59.5460  162.6583   -6.7481 H   0  0  0  0  0  0  0  0  0  0  0  0
   59.1426  157.6188   -6.3256 H   0  0  0  0  0  0  0  0  0  0  0  0
   59.2066  156.4232   -5.0307 H   0  0  0  0  0  0  0  0  0  0  0  0
   57.4964  157.7532   -3.7232 H   0  0  0  0  0  0  0  0  0  0  0  0
   58.9031  158.7796   -4.1311 H   0  0  0  0  0  0  0  0  0  0  0  0
   55.6990  160.5434   -4.8643 H   0  0  0  0  0  0  0  0  0  0  0  0
   54.2967  159.3862   -4.6208 H   0  0  0  0  0  0  0  0  0  0  0  0
   53.1758  158.6303   -3.5203 H   0  0  0  0  0  0  0  0  0  0  0  0
   57.6887  159.6044   -6.0020 H   0  0  0  0  0  0  0  0  0  0  0  0
   56.4058  158.6324   -5.6791 H   0  0  0  0  0  0  0  0  0  0  0  0
  1  3  1  0  0  0  0
  1  4  2  0  0  0  0
  2  4  1  0  0  0  0
  2 16  2  0  0  0  0
  3  5  2  0  0  0  0
  3 15  1  0  0  0  0
  4 21  1  0  0  0  0
  5 16  1  0  0  0  0
  5 19  1  0  0  0  0
  6  7  1  0  0  0  0
  6 17  1  0  0  0  0
  7 18  1  0  0  0  0
  8  9  1  0  0  0  0
  8 17  1  0  0  0  0
  9 15  1  0  0  0  0
  9 18  1  0  0  0  0
 10 13  1  0  0  0  0
 11 17  1  0  0  0  0
 12 18  1  0  0  0  0
 13 14  1  0  0  0  0
 14 20  1  0  0  0  0
 15 20  1  0  0  0  0
  1 22  1  0  0  0  0
  2 23  1  0  0  0  0
  6 24  1  0  0  0  0
  6 25  1  0  0  0  0
  7 26  1  0  0  0  0
  7 27  1  0  0  0  0
  8 28  1  0  0  0  0
  8 29  1  0  0  0  0
  9 30  1  0  0  0  0
 10 31  1  0  0  0  0
 10 32  1  0  0  0  0
 10 33  1  0  0  0  0
 11 34  1  0  0  0  0
 11 35  1  0  0  0  0
 11 36  1  0  0  0  0
 12 37  1  0  0  0  0
 12 38  1  0  0  0  0
 12 39  1  0  0  0  0
 13 40  1  0  0  0  0
 13 41  1  0  0  0  0
 14 42  1  0  0  0  0
 14 43  1  0  0  0  0
 15 44  1  0  0  0  0
 19 45  1  0  0  0  0
 19 46  1  0  0  0  0
 20 47  1  0  0  0  0
 20 48  1  0  0  0  0
M  CHG  1  20   1
M  END
> <FRED Chemgauss4 score>
-4.156999

$$$$
C16382953	P24774798
  -OEChem-05122015083D

 13 13  0     0  0  0  0  0  0999 V2000
   54.0351  155.1867   -6.3430 C   0  0  0  0  0  0  0  0  0  0  0  0
   55.2031  155.0245   -5.4357 C   0  0  0  0  0  0  0  0  0  0  0  0
   53.7980  156.1206   -3.7517 C   0  0  0  0  0  0  0  0  0  0  0  0
   52.9235  155.7358   -5.9903 N   0  0  0  0  0  0  0  0  0  0  0  0
   52.8120  156.1909   -4.7213 N   0  0  0  0  0  0  0  0  0  0  0  0
   54.9828  155.5220   -4.1697 N   0  0  0  0  0  0  0  0  0  0  0  0
   56.0255  155.4109   -3.2549 N   0  0  0  0  0  0  0  0  0  0  0  0
   56.2015  154.4866   -5.8900 O   0  0  0  0  0  0  0  0  0  0  0  0
   53.6101  156.5629   -2.6155 O   0  0  0  0  0  0  0  0  0  0  0  0
   54.1720  154.8011   -7.3656 H   0  0  0  0  0  0  0  0  0  0  0  0
   51.9308  156.6203   -4.4575 H   0  0  0  0  0  0  0  0  0  0  0  0
   56.5761  154.5599   -3.4323 H   0  0  0  0  0  0  0  0  0  0  0  0
   55.6587  155.2900   -2.3014 H   0  0  0  0  0  0  0  0  0  0  0  0
  1  2  1  0  0  0  0
  1  4  2  0  0  0  0
  2  6  1  0  0  0  0
  2  8  2  0  0  0  0
  3  5  1  0  0  0  0
  3  6  1  0  0  0  0
  3  9  2  0  0  0  0
  4  5  1  0  0  0  0
  6  7  1  0  0  0  0
  1 10  1  0  0  0  0
  5 11  1  0  0  0  0
  7 12  1  0  0  0  0
  7 13  1  0  0  0  0
M  END
> <FRED Chemgauss4 score>
-4.138548

$$$$
C85379802	P133639336
  -OEChem-05122015083D

 29 29  0     1  0  0  0  0  0999 V2000
   57.1001  159.4942   -1.3618 C   0  0  0  0  0  0  0  0  0  0  0  0
   55.0578  156.6155   -3.1239 C   0  0  0  0  0  0  0  0  0  0  0  0
   55.9919  154.7802   -4.4990 C   0  0  0  0  0  0  0  0  0  0  0  0
   53.7352  154.6669   -5.1014 C   0  0  0  0  0  0  0  0  0  0  0  0
   55.4422  156.1964   -4.5154 C   0  0  1  0  0  0  0  0  0  0  0  0
   54.2511  156.0527   -5.4456 C   0  0  2  0  0  0  0  0  0  0  0  0
   52.3650  157.1023   -6.4961 C   0  0  0  0  0  0  0  0  0  0  0  0
   56.0346  158.6887   -0.7470 C   0  0  0  0  0  0  0  0  0  0  0  0
   54.8027  158.5952   -1.6411 C   0  0  0  0  0  0  0  0  0  0  0  0
   57.9422  160.1296   -1.8451 N   0  0  0  0  0  0  0  0  0  0  0  0
   55.1301  157.9782   -2.9065 N   0  0  0  0  0  0  0  0  0  0  0  0
   53.2395  157.0872   -5.3290 N   0  0  0  0  0  0  0  0  0  0  0  0
   54.7194  155.7655   -2.3086 O   0  0  0  0  0  0  0  0  0  0  0  0
   54.8835  153.8912   -4.7250 O   0  0  0  0  0  0  0  0  0  0  0  0
   56.7020  154.6275   -5.3190 H   0  0  0  0  0  0  0  0  0  0  0  0
   56.4820  154.5056   -3.5599 H   0  0  0  0  0  0  0  0  0  0  0  0
   53.0489  154.6754   -4.2467 H   0  0  0  0  0  0  0  0  0  0  0  0
   53.2281  154.1854   -5.9431 H   0  0  0  0  0  0  0  0  0  0  0  0
   56.1787  156.9210   -4.8780 H   0  0  0  0  0  0  0  0  0  0  0  0
   54.6230  156.0379   -6.4788 H   0  0  0  0  0  0  0  0  0  0  0  0
   51.8700  156.1341   -6.6073 H   0  0  0  0  0  0  0  0  0  0  0  0
   52.9448  157.3070   -7.4002 H   0  0  0  0  0  0  0  0  0  0  0  0
   51.6016  157.8773   -6.3864 H   0  0  0  0  0  0  0  0  0  0  0  0
   55.7475  159.1485    0.2058 H   0  0  0  0  0  0  0  0  0  0  0  0
   56.4156  157.6865   -0.5180 H   0  0  0  0  0  0  0  0  0  0  0  0
   54.0365  157.9887   -1.1471 H   0  0  0  0  0  0  0  0  0  0  0  0
   54.3748  159.5876   -1.8215 H   0  0  0  0  0  0  0  0  0  0  0  0
   55.4275  158.5749   -3.6727 H   0  0  0  0  0  0  0  0  0  0  0  0
   53.6925  157.9984   -5.2413 H   0  0  0  0  0  0  0  0  0  0  0  0
  1  8  1  0  0  0  0
  1 10  3  0  0  0  0
  2  5  1  0  0  0  0
  2 11  1  0  0  0  0
  2 13  2  0  0  0  0
  3  5  1  0  0  0  0
  3 14  1  0  0  0  0
  4  6  1  0  0  0  0
  4 14  1  0  0  0  0
  5  6  1  0  0  0  0
  6 12  1  0  0  0  0
  7 12  1  0  0  0  0
  8  9  1  0  0  0  0
  9 11  1  0  0  0  0
  3 15  1  0  0  0  0
  3 16  1  0  0  0  0
  4 17  1  0  0  0  0
  4 18  1  0  0  0  0
  5 19  1  0  0  0  0
  6 20  1  0  0  0  0
  7 21  1  0  0  0  0
  7 22  1  0  0  0  0
  7 23  1  0  0  0  0
  8 24  1  0  0  0  0
  8 25  1  0  0  0  0
  9 26  1  0  0  0  0
  9 27  1  0  0  0  0
 11 28  1  0  0  0  0
 12 29  1  0  0  0  0
M  END
> <FRED Chemgauss4 score>
-4.137050

$$$$
C82842415	P129491754
  -OEChem-05122015083D

 22 22  0     1  0  0  0  0  0999 V2000
   55.8216  157.8957   -4.6767 C   0  0  0  0  0  0  0  0  0  0  0  0
   53.9115  157.1727   -3.5431 C   0  0  0  0  0  0  0  0  0  0  0  0
   55.4023  158.5699   -2.5468 C   0  0  0  0  0  0  0  0  0  0  0  0
   54.6646  157.1439   -4.6991 C   0  0  0  0  0  0  0  0  0  0  0  0
   55.3401  153.7524   -5.3024 C   0  0  0  0  0  0  0  0  0  0  0  0
   53.3905  155.1343   -5.5256 C   0  0  0  0  0  0  0  0  0  0  0  0
   54.2483  156.3422   -5.9109 C   0  0  1  0  0  0  0  0  0  0  0  0
   56.2224  158.6233   -3.6136 N   0  0  0  0  0  0  0  0  0  0  0  0
   54.2519  157.8774   -2.4440 N   0  0  0  0  0  0  0  0  0  0  0  0
   54.1389  154.2634   -4.6473 N   0  0  0  0  0  0  0  0  0  0  0  0
   53.5128  157.1971   -6.7867 O   0  0  0  0  0  0  0  0  0  0  0  0
   56.4831  157.9396   -5.5364 H   0  0  0  0  0  0  0  0  0  0  0  0
   52.9842  156.6147   -3.4594 H   0  0  0  0  0  0  0  0  0  0  0  0
   55.7010  159.1445   -1.6786 H   0  0  0  0  0  0  0  0  0  0  0  0
   55.9807  154.5820   -5.6126 H   0  0  0  0  0  0  0  0  0  0  0  0
   55.0692  153.1676   -6.1857 H   0  0  0  0  0  0  0  0  0  0  0  0
   55.9012  153.1118   -4.6167 H   0  0  0  0  0  0  0  0  0  0  0  0
   53.0975  154.5645   -6.4141 H   0  0  0  0  0  0  0  0  0  0  0  0
   52.4775  155.4472   -5.0072 H   0  0  0  0  0  0  0  0  0  0  0  0
   55.1390  156.0156   -6.4619 H   0  0  0  0  0  0  0  0  0  0  0  0
   53.5559  153.4707   -4.3664 H   0  0  0  0  0  0  0  0  0  0  0  0
   53.2616  156.6558   -7.5500 H   0  0  0  0  0  0  0  0  0  0  0  0
  1  4  1  0  0  0  0
  1  8  2  0  0  0  0
  2  4  2  0  0  0  0
  2  9  1  0  0  0  0
  3  8  1  0  0  0  0
  3  9  2  0  0  0  0
  4  7  1  0  0  0  0
  5 10  1  0  0  0  0
  6  7  1  0  0  0  0
  6 10  1  0  0  0  0
  7 11  1  0  0  0  0
  1 12  1  0  0  0  0
  2 13  1  0  0  0  0
  3 14  1  0  0  0  0
  5 15  1  0  0  0  0
  5 16  1  0  0  0  0
  5 17  1  0  0  0  0
  6 18  1  0  0  0  0
  6 19  1  0  0  0  0
  7 20  1  0  0  0  0
 10 21  1  0  0  0  0
 11 22  1  0  0  0  0
M  END
> <FRED Chemgauss4 score>
-4.133784

$$$$
C36326126	P86577449
  -OEChem-05122015083D

 51 52  0     1  0  0  0  0  0999 V2000
   54.6299  155.6287   -4.9068 C   0  0  0  0  0  0  0  0  0  0  0  0
   54.4278  155.7720   -3.3975 C   0  0  0  0  0  0  0  0  0  0  0  0
   56.2264  157.5993   -4.8713 C   0  0  0  0  0  0  0  0  0  0  0  0
   55.6209  159.3895   -1.6362 C   0  0  0  0  0  0  0  0  0  0  0  0
   56.4354  158.8596   -0.4596 C   0  0  0  0  0  0  0  0  0  0  0  0
   58.4177  158.9469   -1.7194 C   0  0  0  0  0  0  0  0  0  0  0  0
   56.0009  156.1564   -5.3491 C   0  0  2  0  0  0  0  0  0  0  0  0
   56.0277  157.7258   -3.3530 C   0  0  2  0  0  0  0  0  0  0  0  0
   54.6473  157.2073   -2.8937 C   0  0  1  0  0  0  0  0  0  0  0  0
   57.6731  159.4744   -2.9542 C   0  0  2  0  0  0  0  0  0  0  0  0
   59.2559  161.4017   -3.1597 C   0  0  0  0  0  0  0  0  0  0  0  0
   55.9688  154.6025   -7.3165 C   0  0  0  0  0  0  0  0  0  0  0  0
   57.5473  156.5502   -7.2828 C   0  0  0  0  0  0  0  0  0  0  0  0
   55.0844  156.9372   -7.5482 C   0  0  0  0  0  0  0  0  0  0  0  0
   57.8225  160.9980   -3.0721 C   0  0  0  0  0  0  0  0  0  0  0  0
   56.1497  156.0620   -6.8667 C   0  0  0  0  0  0  0  0  0  0  0  0
   56.2411  159.1138   -2.9415 N   0  0  2  0  0  0  0  0  0  0  0  0
   53.5526  158.0818   -3.3297 N   0  0  0  0  0  0  0  0  0  0  0  0
   57.7708  159.3591   -0.5153 O   0  0  0  0  0  0  0  0  0  0  0  0
   54.5364  154.5703   -5.1796 H   0  0  0  0  0  0  0  0  0  0  0  0
   53.8316  156.1577   -5.4415 H   0  0  0  0  0  0  0  0  0  0  0  0
   53.4230  155.4232   -3.1282 H   0  0  0  0  0  0  0  0  0  0  0  0
   55.1319  155.1058   -2.8821 H   0  0  0  0  0  0  0  0  0  0  0  0
   57.2454  157.9111   -5.1366 H   0  0  0  0  0  0  0  0  0  0  0  0
   55.5468  158.2776   -5.4044 H   0  0  0  0  0  0  0  0  0  0  0  0
   54.6046  158.9449   -1.6012 H   0  0  0  0  0  0  0  0  0  0  0  0
   55.4877  160.4813   -1.5025 H   0  0  0  0  0  0  0  0  0  0  0  0
   55.9805  159.1279    0.5028 H   0  0  0  0  0  0  0  0  0  0  0  0
   56.4869  157.7661   -0.5052 H   0  0  0  0  0  0  0  0  0  0  0  0
   58.4246  157.8504   -1.7215 H   0  0  0  0  0  0  0  0  0  0  0  0
   59.4650  159.2783   -1.6993 H   0  0  0  0  0  0  0  0  0  0  0  0
   56.7747  155.5215   -4.8965 H   0  0  0  0  0  0  0  0  0  0  0  0
   56.7976  157.1162   -2.8592 H   0  0  0  0  0  0  0  0  0  0  0  0
   54.6252  157.1913   -1.7965 H   0  0  0  0  0  0  0  0  0  0  0  0
   58.1323  159.0260   -3.8633 H   0  0  0  0  0  0  0  0  0  0  0  0
   59.7867  161.0584   -2.2640 H   0  0  0  0  0  0  0  0  0  0  0  0
   59.3540  162.4910   -3.2158 H   0  0  0  0  0  0  0  0  0  0  0  0
   59.7376  160.9509   -4.0337 H   0  0  0  0  0  0  0  0  0  0  0  0
   56.0702  154.5026   -8.4029 H   0  0  0  0  0  0  0  0  0  0  0  0
   54.9787  154.2244   -7.0379 H   0  0  0  0  0  0  0  0  0  0  0  0
   56.7172  153.9516   -6.8506 H   0  0  0  0  0  0  0  0  0  0  0  0
   57.6775  156.4916   -8.3693 H   0  0  0  0  0  0  0  0  0  0  0  0
   57.7053  157.5925   -6.9840 H   0  0  0  0  0  0  0  0  0  0  0  0
   58.3365  155.9474   -6.8196 H   0  0  0  0  0  0  0  0  0  0  0  0
   55.1716  156.8853   -8.6394 H   0  0  0  0  0  0  0  0  0  0  0  0
   55.1827  157.9885   -7.2556 H   0  0  0  0  0  0  0  0  0  0  0  0
   54.0742  156.6091   -7.2787 H   0  0  0  0  0  0  0  0  0  0  0  0
   57.2874  161.3366   -3.9612 H   0  0  0  0  0  0  0  0  0  0  0  0
   57.3586  161.4658   -2.2020 H   0  0  0  0  0  0  0  0  0  0  0  0
   53.7225  159.0608   -3.3481 H   0  0  0  0  0  0  0  0  0  0  0  0
   52.6423  157.6878   -3.3899 H   0  0  0  0  0  0  0  0  0  0  0  0
  1  2  1  0  0  0  0
  1  7  1  0  0  0  0
  2  9  1  0  0  0  0
  3  7  1  0  0  0  0
  3  8  1  0  0  0  0
  4  5  1  0  0  0  0
  4 17  1  0  0  0  0
  5 19  1  0  0  0  0
  6 10  1  0  0  0  0
  6 19  1  0  0  0  0
  7 16  1  0  0  0  0
  8  9  1  0  0  0  0
  8 17  1  0  0  0  0
  9 18  1  0  0  0  0
 10 15  1  0  0  0  0
 10 17  1  0  0  0  0
 11 15  1  0  0  0  0
 12 16  1  0  0  0  0
 13 16  1  0  0  0  0
 14 16  1  0  0  0  0
  1 20  1  0  0  0  0
  1 21  1  0  0  0  0
  2 22  1  0  0  0  0
  2 23  1  0  0  0  0
  3 24  1  0  0  0  0
  3 25  1  0  0  0  0
  4 26  1  0  0  0  0
  4 27  1  0  0  0  0
  5 28  1  0  0  0  0
  5 29  1  0  0  0  0
  6 30  1  0  0  0  0
  6 31  1  0  0  0  0
  7 32  1  0  0  0  0
  8 33  1  0  0  0  0
  9 34  1  0  0  0  0
 10 35  1  0  0  0  0
 11 36  1  0  0  0  0
 11 37  1  0  0  0  0
 11 38  1  0  0  0  0
 12 39  1  0  0  0  0
 12 40  1  0  0  0  0
 12 41  1  0  0  0  0
 13 42  1  0  0  0  0
 13 43  1  0  0  0  0
 13 44  1  0  0  0  0
 14 45  1  0  0  0  0
 14 46  1  0  0  0  0
 14 47  1  0  0  0  0
 15 48  1  0  0  0  0
 15 49  1  0  0  0  0
 18 50  1  0  0  0  0
 18 51  1  0  0  0  0
M  END
> <FRED Chemgauss4 score>
-4.127110

$$$$
C14516428	P134522179
  -OEChem-05122015083D

 20 20  0     1  0  0  0  0  0999 V2000
   53.6781  156.1169   -3.3902 C   0  0  0  0  0  0  0  0  0  0  0  0
   53.8984  156.9576   -5.7176 C   0  0  0  0  0  0  0  0  0  0  0  0
   55.0951  155.5879   -3.4615 C   0  0  1  0  0  0  0  0  0  0  0  0
   55.2987  156.3721   -5.7650 C   0  0  1  0  0  0  0  0  0  0  0  0
   55.0940  154.0908   -3.7557 C   0  0  0  0  0  0  0  0  0  0  0  0
   56.1999  157.1836   -6.6924 C   0  0  0  0  0  0  0  0  0  0  0  0
   53.2006  156.7295   -4.5389 N   0  0  0  0  0  0  0  0  0  0  0  0
   55.8701  156.3739   -4.4206 N   0  0  0  0  0  0  0  0  0  0  0  0
   52.9860  155.9607   -2.3834 O   0  0  0  0  0  0  0  0  0  0  0  0
   53.3948  157.5430   -6.6764 O   0  0  0  0  0  0  0  0  0  0  0  0
   55.5498  155.7426   -2.4756 H   0  0  0  0  0  0  0  0  0  0  0  0
   55.2314  155.3546   -6.1649 H   0  0  0  0  0  0  0  0  0  0  0  0
   54.6470  153.9051   -4.7316 H   0  0  0  0  0  0  0  0  0  0  0  0
   54.5188  153.5641   -2.9953 H   0  0  0  0  0  0  0  0  0  0  0  0
   56.1154  153.7121   -3.7547 H   0  0  0  0  0  0  0  0  0  0  0  0
   56.2883  158.2039   -6.3223 H   0  0  0  0  0  0  0  0  0  0  0  0
   55.7758  157.2040   -7.6951 H   0  0  0  0  0  0  0  0  0  0  0  0
   57.1902  156.7324   -6.7334 H   0  0  0  0  0  0  0  0  0  0  0  0
   52.2351  157.0458   -4.5157 H   0  0  0  0  0  0  0  0  0  0  0  0
   55.9575  157.3334   -4.0852 H   0  0  0  0  0  0  0  0  0  0  0  0
  1  3  1  0  0  0  0
  1  7  1  0  0  0  0
  1  9  2  0  0  0  0
  2  4  1  0  0  0  0
  2  7  1  0  0  0  0
  2 10  2  0  0  0  0
  3  5  1  0  0  0  0
  3  8  1  0  0  0  0
  4  6  1  0  0  0  0
  4  8  1  0  0  0  0
  3 11  1  0  0  0  0
  4 12  1  0  0  0  0
  5 13  1  0  0  0  0
  5 14  1  0  0  0  0
  5 15  1  0  0  0  0
  6 16  1  0  0  0  0
  6 17  1  0  0  0  0
  6 18  1  0  0  0  0
  7 19  1  0  0  0  0
  8 20  1  0  0  0  0
M  END
> <FRED Chemgauss4 score>
-4.109471

$$$$
C50194441	P75082774
  -OEChem-05122015083D

 24 25  0     1  0  0  0  0  0999 V2000
   55.1059  155.3867   -3.8130 C   0  0  0  0  0  0  0  0  0  0  0  0
   54.5736  157.3714   -3.0822 C   0  0  0  0  0  0  0  0  0  0  0  0
   55.6962  154.4788   -4.7154 C   0  0  0  0  0  0  0  0  0  0  0  0
   56.3356  154.9503   -5.7929 C   0  0  0  0  0  0  0  0  0  0  0  0
   56.3821  156.4337   -5.9699 C   0  0  0  0  0  0  0  0  0  0  0  0
   57.1051  156.9586   -7.1842 C   0  0  0  0  0  0  0  0  0  0  0  0
   53.6951  159.3379   -1.7581 C   0  0  0  0  0  0  0  0  0  0  0  0
   54.4610  158.8389   -3.0010 C   0  0  2  0  0  0  0  0  0  0  0  0
   54.4283  155.2354   -2.6948 N   0  0  0  0  0  0  0  0  0  0  0  0
   54.0918  156.4920   -2.2331 N   0  0  0  0  0  0  0  0  0  0  0  0
   55.8476  157.2987   -5.1577 N   0  0  0  0  0  0  0  0  0  0  0  0
   55.2220  156.7289   -4.0964 N   0  0  0  0  0  0  0  0  0  0  0  0
   53.8600  159.4252   -4.1952 N   0  0  0  0  0  0  0  0  0  0  0  0
   55.6276  153.4130   -4.5299 H   0  0  0  0  0  0  0  0  0  0  0  0
   56.8070  154.3011   -6.5190 H   0  0  0  0  0  0  0  0  0  0  0  0
   56.4021  157.0457   -8.0062 H   0  0  0  0  0  0  0  0  0  0  0  0
   57.9016  156.2704   -7.4491 H   0  0  0  0  0  0  0  0  0  0  0  0
   57.5279  157.9312   -6.9533 H   0  0  0  0  0  0  0  0  0  0  0  0
   52.6871  158.9094   -1.7344 H   0  0  0  0  0  0  0  0  0  0  0  0
   54.2033  159.0614   -0.8275 H   0  0  0  0  0  0  0  0  0  0  0  0
   53.5983  160.4294   -1.7598 H   0  0  0  0  0  0  0  0  0  0  0  0
   55.4636  159.3139   -2.9521 H   0  0  0  0  0  0  0  0  0  0  0  0
   54.0823  159.0214   -5.0794 H   0  0  0  0  0  0  0  0  0  0  0  0
   53.4213  160.3168   -4.1106 H   0  0  0  0  0  0  0  0  0  0  0  0
  1  3  1  0  0  0  0
  1  9  2  0  0  0  0
  1 12  1  0  0  0  0
  2  8  1  0  0  0  0
  2 10  2  0  0  0  0
  2 12  1  0  0  0  0
  3  4  2  0  0  0  0
  4  5  1  0  0  0  0
  5  6  1  0  0  0  0
  5 11  2  0  0  0  0
  7  8  1  0  0  0  0
  8 13  1  0  0  0  0
  9 10  1  0  0  0  0
 11 12  1  0  0  0  0
  3 14  1  0  0  0  0
  4 15  1  0  0  0  0
  6 16  1  0  0  0  0
  6 17  1  0  0  0  0
  6 18  1  0  0  0  0
  7 19  1  0  0  0  0
  7 20  1  0  0  0  0
  7 21  1  0  0  0  0
  8 22  1  0  0  0  0
 13 23  1  0  0  0  0
 13 24  1  0  0  0  0
M  END
> <FRED Chemgauss4 score>
-4.104557

$$$$
C40349624	P61251809
  -OEChem-05122015083D

 22 21  0     0  0  0  0  0  0999 V2000
   53.4653  158.9407   -6.0451 C   0  0  0  0  0  0  0  0  0  0  0  0
   54.1051  154.5803   -6.1412 C   0  0  0  0  0  0  0  0  0  0  0  0
   56.1056  155.8773   -5.5512 C   0  0  0  0  0  0  0  0  0  0  0  0
   54.0314  158.3576   -4.7754 C   0  0  0  0  0  0  0  0  0  0  0  0
   54.0702  158.5208   -7.2004 N   0  0  0  0  0  0  0  0  0  0  0  0
   53.2797  157.1217   -4.4831 N   0  0  0  0  0  0  0  0  0  0  0  0
   54.9467  155.1026   -5.0293 N   0  0  0  0  0  0  0  0  0  0  0  0
   55.0841  156.4085   -2.7954 O   0  0  0  0  0  0  0  0  0  0  0  0
   53.1187  154.8956   -3.1986 O   0  0  0  0  0  0  0  0  0  0  0  0
   52.1816  160.0104   -6.0490 S   0  0  0  0  0  0  0  0  0  0  0  0
   54.1052  155.8350   -3.7011 S   0  0  0  0  0  0  0  0  0  0  0  0
   53.2602  154.0149   -5.7393 H   0  0  0  0  0  0  0  0  0  0  0  0
   54.6950  153.9218   -6.7846 H   0  0  0  0  0  0  0  0  0  0  0  0
   53.7202  155.4069   -6.7445 H   0  0  0  0  0  0  0  0  0  0  0  0
   56.7109  156.2523   -4.7218 H   0  0  0  0  0  0  0  0  0  0  0  0
   55.7560  156.7270   -6.1440 H   0  0  0  0  0  0  0  0  0  0  0  0
   56.7308  155.2419   -6.1842 H   0  0  0  0  0  0  0  0  0  0  0  0
   53.9345  159.0335   -3.9218 H   0  0  0  0  0  0  0  0  0  0  0  0
   55.0821  158.0847   -4.9105 H   0  0  0  0  0  0  0  0  0  0  0  0
   54.8438  157.8637   -7.1980 H   0  0  0  0  0  0  0  0  0  0  0  0
   53.7600  158.8568   -8.1061 H   0  0  0  0  0  0  0  0  0  0  0  0
   52.6188  156.8566   -5.2250 H   0  0  0  0  0  0  0  0  0  0  0  0
  1  4  1  0  0  0  0
  1  5  1  0  0  0  0
  1 10  2  0  0  0  0
  2  7  1  0  0  0  0
  3  7  1  0  0  0  0
  4  6  1  0  0  0  0
  6 11  1  0  0  0  0
  7 11  1  0  0  0  0
  8 11  2  0  0  0  0
  9 11  2  0  0  0  0
  2 12  1  0  0  0  0
  2 13  1  0  0  0  0
  2 14  1  0  0  0  0
  3 15  1  0  0  0  0
  3 16  1  0  0  0  0
  3 17  1  0  0  0  0
  4 18  1  0  0  0  0
  4 19  1  0  0  0  0
  5 20  1  0  0  0  0
  5 21  1  0  0  0  0
  6 22  1  0  0  0  0
M  END
> <FRED Chemgauss4 score>
-4.102745

$$$$
C54419245	P81887085
  -OEChem-05122015083D

 25 25  0     1  0  0  0  0  0999 V2000
   55.6607  154.1062   -5.3461 C   0  0  0  0  0  0  0  0  0  0  0  0
   57.1200  155.5837   -6.4296 C   0  0  0  0  0  0  0  0  0  0  0  0
   57.5528  154.1545   -6.6363 C   0  0  0  0  0  0  0  0  0  0  0  0
   55.6616  155.4259   -6.0703 C   0  0  2  0  0  0  0  0  0  0  0  0
   55.1711  157.7559   -5.9034 C   0  0  0  0  0  0  0  0  0  0  0  0
   55.2365  157.2445   -2.8631 C   0  0  0  0  0  0  0  0  0  0  0  0
   55.9836  156.5511   -3.9900 C   0  0  0  0  0  0  0  0  0  0  0  0
   54.0355  156.5434   -2.4961 N   0  0  0  0  0  0  0  0  0  0  0  0
   55.1763  156.4625   -5.2116 N   0  0  2  0  0  0  0  0  0  0  0  0
   54.7948  153.6964   -4.5887 O   0  0  0  0  0  0  0  0  0  0  0  0
   56.7760  153.3944   -5.7032 O   0  0  0  0  0  0  0  0  0  0  0  0
   57.6852  156.0127   -5.5914 H   0  0  0  0  0  0  0  0  0  0  0  0
   57.2912  156.2164   -7.3053 H   0  0  0  0  0  0  0  0  0  0  0  0
   57.3327  153.7941   -7.6468 H   0  0  0  0  0  0  0  0  0  0  0  0
   58.6175  154.0130   -6.4300 H   0  0  0  0  0  0  0  0  0  0  0  0
   55.0434  155.3224   -6.9750 H   0  0  0  0  0  0  0  0  0  0  0  0
   54.7985  158.5374   -5.2361 H   0  0  0  0  0  0  0  0  0  0  0  0
   54.5271  157.7100   -6.7858 H   0  0  0  0  0  0  0  0  0  0  0  0
   56.1836  158.0183   -6.2218 H   0  0  0  0  0  0  0  0  0  0  0  0
   54.9483  158.2629   -3.1423 H   0  0  0  0  0  0  0  0  0  0  0  0
   55.8659  157.2932   -1.9690 H   0  0  0  0  0  0  0  0  0  0  0  0
   56.8899  157.1095   -4.2436 H   0  0  0  0  0  0  0  0  0  0  0  0
   56.2705  155.5322   -3.7106 H   0  0  0  0  0  0  0  0  0  0  0  0
   53.4667  156.1320   -3.2187 H   0  0  0  0  0  0  0  0  0  0  0  0
   53.6739  156.6451   -1.5612 H   0  0  0  0  0  0  0  0  0  0  0  0
  1  4  1  0  0  0  0
  1 10  2  0  0  0  0
  1 11  1  0  0  0  0
  2  3  1  0  0  0  0
  2  4  1  0  0  0  0
  3 11  1  0  0  0  0
  4  9  1  0  0  0  0
  5  9  1  0  0  0  0
  6  7  1  0  0  0  0
  6  8  1  0  0  0  0
  7  9  1  0  0  0  0
  2 12  1  0  0  0  0
  2 13  1  0  0  0  0
  3 14  1  0  0  0  0
  3 15  1  0  0  0  0
  4 16  1  0  0  0  0
  5 17  1  0  0  0  0
  5 18  1  0  0  0  0
  5 19  1  0  0  0  0
  6 20  1  0  0  0  0
  6 21  1  0  0  0  0
  7 22  1  0  0  0  0
  7 23  1  0  0  0  0
  8 24  1  0  0  0  0
  8 25  1  0  0  0  0
M  END
> <FRED Chemgauss4 score>
-4.100533

$$$$
C72297334	P112365902
  -OEChem-05122015083D

 23 24  0     1  0  0  0  0  0999 V2000
   54.8360  156.8441   -3.4726 C   0  0  0  0  0  0  0  0  0  0  0  0
   55.6164  158.1037   -1.9899 C   0  0  0  0  0  0  0  0  0  0  0  0
   56.0075  156.0882   -5.9731 C   0  0  0  0  0  0  0  0  0  0  0  0
   54.9553  155.1791   -5.3232 C   0  0  0  0  0  0  0  0  0  0  0  0
   56.8864  156.7541   -4.9122 C   0  0  0  0  0  0  0  0  0  0  0  0
   54.0328  155.9582   -4.3633 C   0  0  2  0  0  0  0  0  0  0  0  0
   55.6939  158.9004   -0.7601 C   0  0  0  0  0  0  0  0  0  0  0  0
   54.4935  157.4002   -2.3297 N   0  0  0  0  0  0  0  0  0  0  0  0
   56.6389  158.0206   -2.8450 N   0  0  0  0  0  0  0  0  0  0  0  0
   56.1142  157.2190   -3.7826 N   0  0  0  0  0  0  0  0  0  0  0  0
   53.0735  156.7630   -5.1221 N   0  0  0  0  0  0  0  0  0  0  0  0
   56.6350  155.5091   -6.6597 H   0  0  0  0  0  0  0  0  0  0  0  0
   55.5071  156.8583   -6.5730 H   0  0  0  0  0  0  0  0  0  0  0  0
   54.3671  154.6743   -6.0993 H   0  0  0  0  0  0  0  0  0  0  0  0
   55.4717  154.3883   -4.7629 H   0  0  0  0  0  0  0  0  0  0  0  0
   57.6176  156.0398   -4.5173 H   0  0  0  0  0  0  0  0  0  0  0  0
   57.4223  157.6095   -5.3361 H   0  0  0  0  0  0  0  0  0  0  0  0
   53.4747  155.2392   -3.7524 H   0  0  0  0  0  0  0  0  0  0  0  0
   56.0746  158.3020    0.0880 H   0  0  0  0  0  0  0  0  0  0  0  0
   56.3592  159.7782   -0.8666 H   0  0  0  0  0  0  0  0  0  0  0  0
   54.7102  159.3080   -0.4581 H   0  0  0  0  0  0  0  0  0  0  0  0
   52.6602  157.5457   -4.6672 H   0  0  0  0  0  0  0  0  0  0  0  0
   52.7220  156.3872   -5.9740 H   0  0  0  0  0  0  0  0  0  0  0  0
  1  6  1  0  0  0  0
  1  8  2  0  0  0  0
  1 10  1  0  0  0  0
  2  7  1  0  0  0  0
  2  8  1  0  0  0  0
  2  9  2  0  0  0  0
  3  4  1  0  0  0  0
  3  5  1  0  0  0  0
  4  6  1  0  0  0  0
  5 10  1  0  0  0  0
  6 11  1  0  0  0  0
  9 10  1  0  0  0  0
  3 12  1  0  0  0  0
  3 13  1  0  0  0  0
  4 14  1  0  0  0  0
  4 15  1  0  0  0  0
  5 16  1  0  0  0  0
  5 17  1  0  0  0  0
  6 18  1  0  0  0  0
  7 19  1  0  0  0  0
  7 20  1  0  0  0  0
  7 21  1  0  0  0  0
 11 22  1  0  0  0  0
 11 23  1  0  0  0  0
M  END
> <FRED Chemgauss4 score>
-4.097756

$$$$
C41012614	P62260088
  -OEChem-05122015083D

 34 35  0     1  0  0  0  0  0999 V2000
   55.3569  156.5493   -7.2037 C   0  0  0  0  0  0  0  0  0  0  0  0
   54.5804  156.6362   -6.0483 C   0  0  0  0  0  0  0  0  0  0  0  0
   56.7484  156.5260   -7.1089 C   0  0  0  0  0  0  0  0  0  0  0  0
   56.5869  156.6767   -4.7030 C   0  0  0  0  0  0  0  0  0  0  0  0
   56.2343  158.9076   -0.3593 C   0  0  0  0  0  0  0  0  0  0  0  0
   57.3134  159.5542   -0.9246 C   0  0  0  0  0  0  0  0  0  0  0  0
   55.1954  156.6999   -4.7979 C   0  0  0  0  0  0  0  0  0  0  0  0
   57.3633  156.5897   -5.8585 C   0  0  0  0  0  0  0  0  0  0  0  0
   55.4183  159.2133   -2.3719 C   0  0  0  0  0  0  0  0  0  0  0  0
   53.4253  155.5925   -3.3722 C   0  0  0  0  0  0  0  0  0  0  0  0
   54.4763  159.1901   -3.5408 C   0  0  0  0  0  0  0  0  0  0  0  0
   54.3644  156.7927   -3.5629 C   0  0  2  0  0  0  0  0  0  0  0  0
   55.1465  158.7117   -1.1876 N   0  0  0  0  0  0  0  0  0  0  0  0
   59.3964  154.8829   -5.6168 N   0  0  0  0  0  0  0  0  0  0  0  0
   53.5985  158.0265   -3.5110 N   0  0  0  0  0  0  0  0  0  0  0  0
   59.6585  157.0434   -6.9986 O   0  0  0  0  0  0  0  0  0  0  0  0
   59.4942  157.1972   -4.4892 O   0  0  0  0  0  0  0  0  0  0  0  0
   56.9638  159.9352   -2.5598 S   0  0  0  0  0  0  0  0  0  0  0  0
   59.1049  156.5620   -5.7406 S   0  0  0  0  0  0  0  0  0  0  0  0
   54.8781  156.4989   -8.1773 H   0  0  0  0  0  0  0  0  0  0  0  0
   53.4969  156.6526   -6.1318 H   0  0  0  0  0  0  0  0  0  0  0  0
   57.3433  156.4587   -8.0158 H   0  0  0  0  0  0  0  0  0  0  0  0
   57.0650  156.7261   -3.7276 H   0  0  0  0  0  0  0  0  0  0  0  0
   56.1891  158.5546    0.6623 H   0  0  0  0  0  0  0  0  0  0  0  0
   58.2601  159.8102   -0.4704 H   0  0  0  0  0  0  0  0  0  0  0  0
   52.7491  155.4905   -4.2281 H   0  0  0  0  0  0  0  0  0  0  0  0
   53.9894  154.6583   -3.2723 H   0  0  0  0  0  0  0  0  0  0  0  0
   52.8137  155.6971   -2.4690 H   0  0  0  0  0  0  0  0  0  0  0  0
   53.8474  160.0870   -3.5477 H   0  0  0  0  0  0  0  0  0  0  0  0
   55.0257  159.1709   -4.4879 H   0  0  0  0  0  0  0  0  0  0  0  0
   55.0122  156.8339   -2.6694 H   0  0  0  0  0  0  0  0  0  0  0  0
   59.8175  154.4061   -6.4235 H   0  0  0  0  0  0  0  0  0  0  0  0
   59.7032  154.5126   -4.7091 H   0  0  0  0  0  0  0  0  0  0  0  0
   53.0468  158.0472   -2.6524 H   0  0  0  0  0  0  0  0  0  0  0  0
  1  2  2  0  0  0  0
  1  3  1  0  0  0  0
  2  7  1  0  0  0  0
  3  8  2  0  0  0  0
  4  7  2  0  0  0  0
  4  8  1  0  0  0  0
  5  6  2  0  0  0  0
  5 13  1  0  0  0  0
  6 18  1  0  0  0  0
  7 12  1  0  0  0  0
  8 19  1  0  0  0  0
  9 11  1  0  0  0  0
  9 13  2  0  0  0  0
  9 18  1  0  0  0  0
 10 12  1  0  0  0  0
 11 15  1  0  0  0  0
 12 15  1  0  0  0  0
 14 19  1  0  0  0  0
 16 19  2  0  0  0  0
 17 19  2  0  0  0  0
  1 20  1  0  0  0  0
  2 21  1  0  0  0  0
  3 22  1  0  0  0  0
  4 23  1  0  0  0  0
  5 24  1  0  0  0  0
  6 25  1  0  0  0  0
 10 26  1  0  0  0  0
 10 27  1  0  0  0  0
 10 28  1  0  0  0  0
 11 29  1  0  0  0  0
 11 30  1  0  0  0  0
 12 31  1  0  0  0  0
 14 32  1  0  0  0  0
 14 33  1  0  0  0  0
 15 34  1  0  0  0  0
M  END
> <FRED Chemgauss4 score>
-4.082952

$$$$
C39078638	P59214267
  -OEChem-05122015083D

 18 18  0     0  0  0  0  0  0999 V2000
   55.2580  156.8316   -4.8679 C   0  0  0  0  0  0  0  0  0  0  0  0
   53.9841  157.0495   -5.2131 C   0  0  0  0  0  0  0  0  0  0  0  0
   53.9444  156.0984   -3.1517 C   0  0  0  0  0  0  0  0  0  0  0  0
   53.5010  157.6402   -6.4449 C   0  0  0  0  0  0  0  0  0  0  0  0
   56.4801  155.8717   -2.9152 C   0  0  0  0  0  0  0  0  0  0  0  0
   52.2054  157.7962   -6.6537 N   0  0  0  0  0  0  0  0  0  0  0  0
   53.1520  156.6245   -4.2107 N   0  0  0  0  0  0  0  0  0  0  0  0
   55.2816  156.2526   -3.6177 N   0  0  0  0  0  0  0  0  0  0  0  0
   54.3937  158.0527   -7.4281 N   0  0  0  0  0  0  0  0  0  0  0  0
   53.5527  155.6273   -2.0954 O   0  0  0  0  0  0  0  0  0  0  0  0
   56.1642  157.0413   -5.4130 H   0  0  0  0  0  0  0  0  0  0  0  0
   56.8363  156.7033   -2.3017 H   0  0  0  0  0  0  0  0  0  0  0  0
   57.2642  155.5980   -3.6264 H   0  0  0  0  0  0  0  0  0  0  0  0
   56.2814  155.0150   -2.2657 H   0  0  0  0  0  0  0  0  0  0  0  0
   51.6820  157.4472   -5.8439 H   0  0  0  0  0  0  0  0  0  0  0  0
   52.1407  156.6761   -4.2215 H   0  0  0  0  0  0  0  0  0  0  0  0
   55.3942  157.9467   -7.2972 H   0  0  0  0  0  0  0  0  0  0  0  0
   54.0835  158.4695   -8.2993 H   0  0  0  0  0  0  0  0  0  0  0  0
  1  2  2  0  0  0  0
  1  8  1  0  0  0  0
  2  4  1  0  0  0  0
  2  7  1  0  0  0  0
  3  7  1  0  0  0  0
  3  8  1  0  0  0  0
  3 10  2  0  0  0  0
  4  6  2  0  0  0  0
  4  9  1  0  0  0  0
  5  8  1  0  0  0  0
  1 11  1  0  0  0  0
  5 12  1  0  0  0  0
  5 13  1  0  0  0  0
  5 14  1  0  0  0  0
  6 15  1  0  0  0  0
  7 16  1  0  0  0  0
  9 17  1  0  0  0  0
  9 18  1  0  0  0  0
M  END
> <FRED Chemgauss4 score>
-4.067272

$$$$
C72313242	P112387662
  -OEChem-05122015083D

 23 24  0     1  0  0  0  0  0999 V2000
   54.0365  156.2260   -4.3850 C   0  0  0  0  0  0  0  0  0  0  0  0
   54.8659  157.2863   -2.6644 C   0  0  0  0  0  0  0  0  0  0  0  0
   56.5271  155.7713   -5.6939 C   0  0  0  0  0  0  0  0  0  0  0  0
   55.2505  155.8544   -6.5381 C   0  0  0  0  0  0  0  0  0  0  0  0
   56.4730  156.7640   -4.5317 C   0  0  0  0  0  0  0  0  0  0  0  0
   54.0107  155.5080   -5.6923 C   0  0  2  0  0  0  0  0  0  0  0  0
   55.8302  157.9736   -1.7870 C   0  0  0  0  0  0  0  0  0  0  0  0
   53.0606  156.4170   -3.5198 N   0  0  0  0  0  0  0  0  0  0  0  0
   53.5858  157.0942   -2.4343 N   0  0  0  0  0  0  0  0  0  0  0  0
   55.1886  156.7530   -3.8684 N   0  0  0  0  0  0  0  0  0  0  0  0
   52.8009  155.8255   -6.4483 N   0  0  0  0  0  0  0  0  0  0  0  0
   56.6365  154.7513   -5.3043 H   0  0  0  0  0  0  0  0  0  0  0  0
   57.4068  155.9758   -6.3140 H   0  0  0  0  0  0  0  0  0  0  0  0
   55.1658  156.8692   -6.9504 H   0  0  0  0  0  0  0  0  0  0  0  0
   55.3258  155.1686   -7.3909 H   0  0  0  0  0  0  0  0  0  0  0  0
   57.2468  156.5275   -3.7942 H   0  0  0  0  0  0  0  0  0  0  0  0
   56.6302  157.7862   -4.8941 H   0  0  0  0  0  0  0  0  0  0  0  0
   54.0179  154.4310   -5.4848 H   0  0  0  0  0  0  0  0  0  0  0  0
   56.3085  157.2670   -1.0880 H   0  0  0  0  0  0  0  0  0  0  0  0
   56.6329  158.4706   -2.3597 H   0  0  0  0  0  0  0  0  0  0  0  0
   55.3527  158.7666   -1.1846 H   0  0  0  0  0  0  0  0  0  0  0  0
   51.9559  155.9692   -5.9403 H   0  0  0  0  0  0  0  0  0  0  0  0
   52.8162  155.6871   -7.4350 H   0  0  0  0  0  0  0  0  0  0  0  0
  1  6  1  0  0  0  0
  1  8  2  0  0  0  0
  1 10  1  0  0  0  0
  2  7  1  0  0  0  0
  2  9  2  0  0  0  0
  2 10  1  0  0  0  0
  3  4  1  0  0  0  0
  3  5  1  0  0  0  0
  4  6  1  0  0  0  0
  5 10  1  0  0  0  0
  6 11  1  0  0  0  0
  8  9  1  0  0  0  0
  3 12  1  0  0  0  0
  3 13  1  0  0  0  0
  4 14  1  0  0  0  0
  4 15  1  0  0  0  0
  5 16  1  0  0  0  0
  5 17  1  0  0  0  0
  6 18  1  0  0  0  0
  7 19  1  0  0  0  0
  7 20  1  0  0  0  0
  7 21  1  0  0  0  0
 11 22  1  0  0  0  0
 11 23  1  0  0  0  0
M  END
> <FRED Chemgauss4 score>
-4.062634

$$$$
C37491501	P55758377
  -OEChem-05122015083D

 26 25  0     0  0  0  0  0  0999 V2000
   59.7896  154.3491   -6.1617 C   0  0  0  0  0  0  0  0  0  0  0  0
   54.6789  156.7466   -3.5049 C   0  0  0  0  0  0  0  0  0  0  0  0
   55.8668  156.0789   -4.1850 C   0  0  0  0  0  0  0  0  0  0  0  0
   56.6209  154.5263   -5.8535 C   0  0  0  0  0  0  0  0  0  0  0  0
   53.7471  155.7479   -2.8290 C   0  0  0  0  0  0  0  0  0  0  0  0
   57.3258  155.4515   -6.8269 C   0  0  0  0  0  0  0  0  0  0  0  0
   55.4667  155.1661   -5.2208 N   0  0  0  0  0  0  0  0  0  0  0  0
   58.3420  153.4288   -8.1341 O   0  0  0  0  0  0  0  0  0  0  0  0
   59.4212  155.6986   -8.3698 O   0  0  0  0  0  0  0  0  0  0  0  0
   52.6657  156.4578   -2.2397 O   0  0  0  0  0  0  0  0  0  0  0  0
   58.7464  154.7000   -7.5583 S   0  0  0  0  0  0  0  0  0  0  0  0
   60.7037  153.8767   -6.5248 H   0  0  0  0  0  0  0  0  0  0  0  0
   60.0190  155.2895   -5.6584 H   0  0  0  0  0  0  0  0  0  0  0  0
   59.2523  153.6771   -5.4909 H   0  0  0  0  0  0  0  0  0  0  0  0
   55.0444  157.4567   -2.7527 H   0  0  0  0  0  0  0  0  0  0  0  0
   54.1089  157.3432   -4.2283 H   0  0  0  0  0  0  0  0  0  0  0  0
   56.5048  156.8341   -4.6544 H   0  0  0  0  0  0  0  0  0  0  0  0
   56.4714  155.5212   -3.4627 H   0  0  0  0  0  0  0  0  0  0  0  0
   56.2645  153.6179   -6.3490 H   0  0  0  0  0  0  0  0  0  0  0  0
   57.3036  154.2354   -5.0494 H   0  0  0  0  0  0  0  0  0  0  0  0
   53.3381  155.0349   -3.5515 H   0  0  0  0  0  0  0  0  0  0  0  0
   54.2712  155.1971   -2.0415 H   0  0  0  0  0  0  0  0  0  0  0  0
   57.6852  156.3461   -6.3096 H   0  0  0  0  0  0  0  0  0  0  0  0
   56.6678  155.7574   -7.6459 H   0  0  0  0  0  0  0  0  0  0  0  0
   54.9351  155.6622   -5.9448 H   0  0  0  0  0  0  0  0  0  0  0  0
   52.0928  155.7964   -1.8192 H   0  0  0  0  0  0  0  0  0  0  0  0
  1 11  1  0  0  0  0
  2  3  1  0  0  0  0
  2  5  1  0  0  0  0
  3  7  1  0  0  0  0
  4  6  1  0  0  0  0
  4  7  1  0  0  0  0
  5 10  1  0  0  0  0
  6 11  1  0  0  0  0
  8 11  2  0  0  0  0
  9 11  2  0  0  0  0
  1 12  1  0  0  0  0
  1 13  1  0  0  0  0
  1 14  1  0  0  0  0
  2 15  1  0  0  0  0
  2 16  1  0  0  0  0
  3 17  1  0  0  0  0
  3 18  1  0  0  0  0
  4 19  1  0  0  0  0
  4 20  1  0  0  0  0
  5 21  1  0  0  0  0
  5 22  1  0  0  0  0
  6 23  1  0  0  0  0
  6 24  1  0  0  0  0
  7 25  1  0  0  0  0
 10 26  1  0  0  0  0
M  END
> <FRED Chemgauss4 score>
-4.041158

$$$$
C04152201	P05310792
  -OEChem-05122015083D

 12 12  0     0  0  0  0  0  0999 V2000
   55.0105  154.7555   -2.7855 C   0  0  0  0  0  0  0  0  0  0  0  0
   53.4327  155.3161   -4.1659 C   0  0  0  0  0  0  0  0  0  0  0  0
   53.9590  155.0858   -2.0701 N   0  0  0  0  0  0  0  0  0  0  0  0
   52.9553  155.4425   -2.9484 N   0  0  0  0  0  0  0  0  0  0  0  0
   54.7237  154.8858   -4.1105 N   0  0  0  0  0  0  0  0  0  0  0  0
   52.8332  155.5477   -5.3558 N   0  0  0  0  0  0  0  0  0  0  0  0
   55.6025  154.6225   -5.1828 N   0  0  0  0  0  0  0  0  0  0  0  0
   55.9677  154.4263   -2.4062 H   0  0  0  0  0  0  0  0  0  0  0  0
   51.8451  155.8284   -5.4238 H   0  0  0  0  0  0  0  0  0  0  0  0
   53.3075  155.3634   -6.2508 H   0  0  0  0  0  0  0  0  0  0  0  0
   56.5872  154.8007   -4.9550 H   0  0  0  0  0  0  0  0  0  0  0  0
   55.4184  155.2088   -6.0051 H   0  0  0  0  0  0  0  0  0  0  0  0
  1  3  2  0  0  0  0
  1  5  1  0  0  0  0
  2  4  2  0  0  0  0
  2  5  1  0  0  0  0
  2  6  1  0  0  0  0
  3  4  1  0  0  0  0
  5  7  1  0  0  0  0
  1  8  1  0  0  0  0
  6  9  1  0  0  0  0
  6 10  1  0  0  0  0
  7 11  1  0  0  0  0
  7 12  1  0  0  0  0
M  END
> <FRED Chemgauss4 score>
-4.030624

$$$$
C19801101	P29402537
  -OEChem-05122015083D

 14 14  0     0  0  0  0  0  0999 V2000
   55.2171  157.3764   -4.6949 C   0  0  0  0  0  0  0  0  0  0  0  0
   54.2480  157.3405   -3.7254 C   0  0  0  0  0  0  0  0  0  0  0  0
   55.6668  158.3856   -2.3132 C   0  0  0  0  0  0  0  0  0  0  0  0
   55.9505  158.9667   -0.9710 C   0  0  0  0  0  0  0  0  0  0  0  0
   56.4189  157.9285   -4.4481 N   0  0  0  0  0  0  0  0  0  0  0  0
   54.4519  157.8490   -2.5008 N   0  0  0  0  0  0  0  0  0  0  0  0
   56.6561  158.4487   -3.2260 N   0  0  0  0  0  0  0  0  0  0  0  0
   53.0049  156.7483   -4.0403 N   0  0  0  0  0  0  0  0  0  0  0  0
   55.0768  156.9732   -5.6900 H   0  0  0  0  0  0  0  0  0  0  0  0
   56.3767  158.2051   -0.3057 H   0  0  0  0  0  0  0  0  0  0  0  0
   56.6590  159.8032   -1.0389 H   0  0  0  0  0  0  0  0  0  0  0  0
   55.0377  159.3623   -0.5054 H   0  0  0  0  0  0  0  0  0  0  0  0
   52.8467  156.4153   -4.9687 H   0  0  0  0  0  0  0  0  0  0  0  0
   52.2755  156.7585   -3.3578 H   0  0  0  0  0  0  0  0  0  0  0  0
  1  2  1  0  0  0  0
  1  5  2  0  0  0  0
  2  6  2  0  0  0  0
  2  8  1  0  0  0  0
  3  4  1  0  0  0  0
  3  6  1  0  0  0  0
  3  7  2  0  0  0  0
  5  7  1  0  0  0  0
  1  9  1  0  0  0  0
  4 10  1  0  0  0  0
  4 11  1  0  0  0  0
  4 12  1  0  0  0  0
  8 13  1  0  0  0  0
  8 14  1  0  0  0  0
M  END
> <FRED Chemgauss4 score>
-4.023391

$$$$
C95922224	P151021538
  -OEChem-05122015083D

 16 16  0     1  0  0  0  0  0999 V2000
   54.5335  157.1703   -3.2698 C   0  0  0  0  0  0  0  0  0  0  0  0
   56.5064  157.1894   -4.8015 C   0  0  0  0  0  0  0  0  0  0  0  0
   57.0446  156.6342   -5.8843 C   0  0  0  0  0  0  0  0  0  0  0  0
   54.4828  155.7518   -4.8348 C   0  0  0  0  0  0  0  0  0  0  0  0
   53.4868  156.1089   -3.6946 C   0  0  1  0  0  0  0  0  0  0  0  0
   55.3161  156.8139   -4.3089 N   0  0  0  0  0  0  0  0  0  0  0  0
   53.4035  154.9942   -2.7558 N   0  0  0  0  0  0  0  0  0  0  0  0
   54.6453  157.9908   -2.3887 O   0  0  0  0  0  0  0  0  0  0  0  0
   56.4187  155.6512   -6.5572 F   0  0  0  0  0  0  0  0  0  0  0  0
   57.0073  157.9807   -4.2581 H   0  0  0  0  0  0  0  0  0  0  0  0
   57.9926  156.8796   -6.3399 H   0  0  0  0  0  0  0  0  0  0  0  0
   54.9565  154.7653   -4.8003 H   0  0  0  0  0  0  0  0  0  0  0  0
   54.1101  155.9528   -5.8441 H   0  0  0  0  0  0  0  0  0  0  0  0
   52.5278  156.5267   -4.0119 H   0  0  0  0  0  0  0  0  0  0  0  0
   53.2508  154.0802   -3.1242 H   0  0  0  0  0  0  0  0  0  0  0  0
   53.2975  155.2036   -1.7865 H   0  0  0  0  0  0  0  0  0  0  0  0
  1  5  1  0  0  0  0
  1  6  1  0  0  0  0
  1  8  2  0  0  0  0
  2  3  2  0  0  0  0
  2  6  1  0  0  0  0
  3  9  1  0  0  0  0
  4  5  1  0  0  0  0
  4  6  1  0  0  0  0
  5  7  1  0  0  0  0
  2 10  1  0  0  0  0
  3 11  1  0  0  0  0
  4 12  1  0  0  0  0
  4 13  1  0  0  0  0
  5 14  1  0  0  0  0
  7 15  1  0  0  0  0
  7 16  1  0  0  0  0
M  END
> <FRED Chemgauss4 score>
-4.014663

$$$$
C61843660	P128730449
  -OEChem-05122015083D

 20 20  0     0  0  0  0  0  0999 V2000
   56.1115  158.5209   -1.8860 C   0  0  0  0  0  0  0  0  0  0  0  0
   55.0166  158.1757   -3.6293 C   0  0  0  0  0  0  0  0  0  0  0  0
   54.0178  157.8654   -4.5974 C   0  0  0  0  0  0  0  0  0  0  0  0
   58.7046  160.0883   -1.6414 C   0  0  0  0  0  0  0  0  0  0  0  0
   58.3797  159.1989   -2.8291 C   0  0  0  0  0  0  0  0  0  0  0  0
   54.8747  158.1432   -2.3246 N   0  0  0  0  0  0  0  0  0  0  0  0
   56.2841  158.5567   -3.9425 N   0  0  0  0  0  0  0  0  0  0  0  0
   54.2674  156.8638   -5.4432 N   0  0  0  0  0  0  0  0  0  0  0  0
   57.0097  158.7850   -2.8373 N   0  0  0  0  0  0  0  0  0  0  0  0
   52.7902  158.5594   -4.7058 N   0  0  0  0  0  0  0  0  0  0  0  0
   53.2276  156.6398   -6.3512 O   0  0  0  0  0  0  0  0  0  0  0  0
   56.3458  158.5999   -0.8318 H   0  0  0  0  0  0  0  0  0  0  0  0
   58.0851  160.9914   -1.6421 H   0  0  0  0  0  0  0  0  0  0  0  0
   59.7547  160.3948   -1.6729 H   0  0  0  0  0  0  0  0  0  0  0  0
   58.5299  159.5646   -0.6957 H   0  0  0  0  0  0  0  0  0  0  0  0
   59.0042  158.2984   -2.8197 H   0  0  0  0  0  0  0  0  0  0  0  0
   58.5794  159.7233   -3.7705 H   0  0  0  0  0  0  0  0  0  0  0  0
   52.5592  159.3127   -4.0682 H   0  0  0  0  0  0  0  0  0  0  0  0
   52.0833  158.3088   -5.3890 H   0  0  0  0  0  0  0  0  0  0  0  0
   53.5789  155.8965   -6.8699 H   0  0  0  0  0  0  0  0  0  0  0  0
  1  6  2  0  0  0  0
  1  9  1  0  0  0  0
  2  3  1  0  0  0  0
  2  6  1  0  0  0  0
  2  7  2  0  0  0  0
  3  8  2  0  0  0  0
  3 10  1  0  0  0  0
  4  5  1  0  0  0  0
  5  9  1  0  0  0  0
  7  9  1  0  0  0  0
  8 11  1  0  0  0  0
  1 12  1  0  0  0  0
  4 13  1  0  0  0  0
  4 14  1  0  0  0  0
  4 15  1  0  0  0  0
  5 16  1  0  0  0  0
  5 17  1  0  0  0  0
 10 18  1  0  0  0  0
 10 19  1  0  0  0  0
 11 20  1  0  0  0  0
M  END
> <FRED Chemgauss4 score>
-4.014422

$$$$
C37169667	P55272176
  -OEChem-05122015083D

 29 29  0     1  0  0  0  0  0999 V2000
   58.5323  159.1751   -4.6719 C   0  0  0  0  0  0  0  0  0  0  0  0
   59.6850  158.3429   -5.2186 C   0  0  0  0  0  0  0  0  0  0  0  0
   57.4768  158.2904   -4.0051 C   0  0  0  0  0  0  0  0  0  0  0  0
   58.0806  156.4020   -5.4000 C   0  0  0  0  0  0  0  0  0  0  0  0
   59.1574  157.2245   -6.1134 C   0  0  2  0  0  0  0  0  0  0  0  0
   55.0655  157.3793   -3.4341 C   0  0  0  0  0  0  0  0  0  0  0  0
   55.9424  156.4551   -4.2930 C   0  0  1  0  0  0  0  0  0  0  0  0
   55.1676  155.7201   -5.3796 C   0  0  0  0  0  0  0  0  0  0  0  0
   56.9850  157.2592   -4.9298 N   0  0  1  0  0  0  0  0  0  0  0  0
   53.9757  156.6592   -2.7825 N   0  0  0  0  0  0  0  0  0  0  0  0
   60.2329  156.3752   -6.4991 O   0  0  0  0  0  0  0  0  0  0  0  0
   54.2218  154.9083   -4.8591 F   0  0  0  0  0  0  0  0  0  0  0  0
   55.9938  154.9595   -6.1343 F   0  0  0  0  0  0  0  0  0  0  0  0
   54.5517  156.5832   -6.2173 F   0  0  0  0  0  0  0  0  0  0  0  0
   58.9134  159.9048   -3.9487 H   0  0  0  0  0  0  0  0  0  0  0  0
   58.0719  159.7448   -5.4889 H   0  0  0  0  0  0  0  0  0  0  0  0
   60.3846  158.9761   -5.7770 H   0  0  0  0  0  0  0  0  0  0  0  0
   60.2641  157.9148   -4.3901 H   0  0  0  0  0  0  0  0  0  0  0  0
   57.8989  157.8341   -3.1000 H   0  0  0  0  0  0  0  0  0  0  0  0
   56.6451  158.9318   -3.6885 H   0  0  0  0  0  0  0  0  0  0  0  0
   57.6968  155.6516   -6.1032 H   0  0  0  0  0  0  0  0  0  0  0  0
   58.5309  155.8382   -4.5711 H   0  0  0  0  0  0  0  0  0  0  0  0
   58.7358  157.6642   -7.0335 H   0  0  0  0  0  0  0  0  0  0  0  0
   55.6704  157.8824   -2.6700 H   0  0  0  0  0  0  0  0  0  0  0  0
   54.6225  158.1614   -4.0622 H   0  0  0  0  0  0  0  0  0  0  0  0
   56.4305  155.7152   -3.6472 H   0  0  0  0  0  0  0  0  0  0  0  0
   53.1514  157.1684   -2.5464 H   0  0  0  0  0  0  0  0  0  0  0  0
   54.1656  155.7513   -2.4162 H   0  0  0  0  0  0  0  0  0  0  0  0
   60.8673  156.9307   -6.9790 H   0  0  0  0  0  0  0  0  0  0  0  0
  1  2  1  0  0  0  0
  1  3  1  0  0  0  0
  2  5  1  0  0  0  0
  3  9  1  0  0  0  0
  4  5  1  0  0  0  0
  4  9  1  0  0  0  0
  5 11  1  0  0  0  0
  6  7  1  0  0  0  0
  6 10  1  0  0  0  0
  7  8  1  0  0  0  0
  7  9  1  0  0  0  0
  8 12  1  0  0  0  0
  8 13  1  0  0  0  0
  8 14  1  0  0  0  0
  1 15  1  0  0  0  0
  1 16  1  0  0  0  0
  2 17  1  0  0  0  0
  2 18  1  0  0  0  0
  3 19  1  0  0  0  0
  3 20  1  0  0  0  0
  4 21  1  0  0  0  0
  4 22  1  0  0  0  0
  5 23  1  0  0  0  0
  6 24  1  0  0  0  0
  6 25  1  0  0  0  0
  7 26  1  0  0  0  0
 10 27  1  0  0  0  0
 10 28  1  0  0  0  0
 11 29  1  0  0  0  0
M  END
> <FRED Chemgauss4 score>
-4.011216

$$$$
C72226568	P112212622
  -OEChem-05122015083D

 23 23  0     1  0  0  0  0  0999 V2000
   56.0555  156.0708   -6.5716 C   0  0  0  0  0  0  0  0  0  0  0  0
   57.4249  156.4857   -6.3973 C   0  0  0  0  0  0  0  0  0  0  0  0
   55.0804  156.4778   -5.7428 C   0  0  0  0  0  0  0  0  0  0  0  0
   57.7570  157.3008   -5.3853 C   0  0  0  0  0  0  0  0  0  0  0  0
   55.4427  157.3906   -4.6067 C   0  0  0  0  0  0  0  0  0  0  0  0
   59.1495  157.7809   -5.1307 C   0  0  0  0  0  0  0  0  0  0  0  0
   53.1387  155.4054   -4.6253 C   0  0  0  0  0  0  0  0  0  0  0  0
   53.6483  156.0739   -5.8862 C   0  0  1  0  0  0  0  0  0  0  0  0
   56.7814  157.7381   -4.5149 N   0  0  0  0  0  0  0  0  0  0  0  0
   52.9496  157.2950   -6.1703 N   0  0  0  0  0  0  0  0  0  0  0  0
   54.5877  157.7928   -3.8202 O   0  0  0  0  0  0  0  0  0  0  0  0
   55.8428  155.4112   -7.4068 H   0  0  0  0  0  0  0  0  0  0  0  0
   58.1612  156.1195   -7.1041 H   0  0  0  0  0  0  0  0  0  0  0  0
   59.3212  158.7132   -5.6675 H   0  0  0  0  0  0  0  0  0  0  0  0
   59.8652  157.0324   -5.4696 H   0  0  0  0  0  0  0  0  0  0  0  0
   59.2921  157.9476   -4.0633 H   0  0  0  0  0  0  0  0  0  0  0  0
   53.2372  156.0615   -3.7527 H   0  0  0  0  0  0  0  0  0  0  0  0
   52.0798  155.1441   -4.7249 H   0  0  0  0  0  0  0  0  0  0  0  0
   53.7012  154.4896   -4.4152 H   0  0  0  0  0  0  0  0  0  0  0  0
   53.5475  155.4152   -6.7526 H   0  0  0  0  0  0  0  0  0  0  0  0
   57.0618  158.3547   -3.7574 H   0  0  0  0  0  0  0  0  0  0  0  0
   51.9531  157.3409   -6.0186 H   0  0  0  0  0  0  0  0  0  0  0  0
   53.4124  158.0168   -6.7022 H   0  0  0  0  0  0  0  0  0  0  0  0
  1  2  1  0  0  0  0
  1  3  2  0  0  0  0
  2  4  2  0  0  0  0
  3  5  1  0  0  0  0
  3  8  1  0  0  0  0
  4  6  1  0  0  0  0
  4  9  1  0  0  0  0
  5  9  1  0  0  0  0
  5 11  2  0  0  0  0
  7  8  1  0  0  0  0
  8 10  1  0  0  0  0
  1 12  1  0  0  0  0
  2 13  1  0  0  0  0
  6 14  1  0  0  0  0
  6 15  1  0  0  0  0
  6 16  1  0  0  0  0
  7 17  1  0  0  0  0
  7 18  1  0  0  0  0
  7 19  1  0  0  0  0
  8 20  1  0  0  0  0
  9 21  1  0  0  0  0
 10 22  1  0  0  0  0
 10 23  1  0  0  0  0
M  END
> <FRED Chemgauss4 score>
-4.008971

$$$$
C12505096	P48658544
  -OEChem-05122015083D

 13 13  0     0  0  0  0  0  0999 V2000
   53.5656  155.9033   -3.5392 C   0  0  0  0  0  0  0  0  0  0  0  0
   54.8696  155.7159   -5.3888 C   0  0  0  0  0  0  0  0  0  0  0  0
   53.0984  156.7088   -7.0251 C   0  0  0  0  0  0  0  0  0  0  0  0
   54.8068  155.4970   -4.0210 N   0  0  0  0  0  0  0  0  0  0  0  0
   52.8510  156.3841   -4.6474 N   0  0  0  0  0  0  0  0  0  0  0  0
   53.6490  156.2671   -5.7666 N   0  0  0  0  0  0  0  0  0  0  0  0
   53.1732  155.8526   -2.3822 O   0  0  0  0  0  0  0  0  0  0  0  0
   56.1863  155.3631   -6.3377 S   0  0  0  0  0  0  0  0  0  0  0  0
   52.5817  155.8824   -7.5199 H   0  0  0  0  0  0  0  0  0  0  0  0
   53.8958  157.0685   -7.6810 H   0  0  0  0  0  0  0  0  0  0  0  0
   52.3859  157.5218   -6.8614 H   0  0  0  0  0  0  0  0  0  0  0  0
   55.5504  155.1018   -3.4575 H   0  0  0  0  0  0  0  0  0  0  0  0
   51.9132  156.7626   -4.6853 H   0  0  0  0  0  0  0  0  0  0  0  0
  1  4  1  0  0  0  0
  1  5  1  0  0  0  0
  1  7  2  0  0  0  0
  2  4  1  0  0  0  0
  2  6  1  0  0  0  0
  2  8  2  0  0  0  0
  3  6  1  0  0  0  0
  5  6  1  0  0  0  0
  3  9  1  0  0  0  0
  3 10  1  0  0  0  0
  3 11  1  0  0  0  0
  4 12  1  0  0  0  0
  5 13  1  0  0  0  0
M  END
> <FRED Chemgauss4 score>
-4.008580

$$$$
C84212117	P131816330
  -OEChem-05122015083D

 28 28  0     1  0  0  0  0  0999 V2000
   58.2599  155.5395   -5.6168 C   0  0  0  0  0  0  0  0  0  0  0  0
   57.2078  155.8907   -6.0763 C   0  0  0  0  0  0  0  0  0  0  0  0
   54.3056  156.8566   -3.3975 C   0  0  0  0  0  0  0  0  0  0  0  0
   52.8802  157.0527   -6.7708 C   0  0  0  0  0  0  0  0  0  0  0  0
   54.0848  157.8467   -6.2633 C   0  0  0  0  0  0  0  0  0  0  0  0
   53.2934  155.3459   -5.1196 C   0  0  0  0  0  0  0  0  0  0  0  0
   54.5613  156.0758   -4.6557 C   0  0  1  0  0  0  0  0  0  0  0  0
   55.0318  158.8606   -2.1172 C   0  0  0  0  0  0  0  0  0  0  0  0
   55.9252  156.3165   -6.6417 C   0  0  0  0  0  0  0  0  0  0  0  0
   52.2986  156.2477   -5.7011 N   0  0  0  0  0  0  0  0  0  0  0  0
   55.1239  157.0163   -5.6358 N   0  0  1  0  0  0  0  0  0  0  0  0
   55.1121  157.9692   -3.2521 N   0  0  0  0  0  0  0  0  0  0  0  0
   53.4396  156.4785   -2.6173 O   0  0  0  0  0  0  0  0  0  0  0  0
   59.1929  155.2278   -5.2087 H   0  0  0  0  0  0  0  0  0  0  0  0
   52.1267  157.7290   -7.1905 H   0  0  0  0  0  0  0  0  0  0  0  0
   53.2032  156.3886   -7.5784 H   0  0  0  0  0  0  0  0  0  0  0  0
   54.5128  158.4312   -7.1034 H   0  0  0  0  0  0  0  0  0  0  0  0
   53.7184  158.5924   -5.5319 H   0  0  0  0  0  0  0  0  0  0  0  0
   53.5639  154.5919   -5.8744 H   0  0  0  0  0  0  0  0  0  0  0  0
   52.8374  154.7829   -4.2881 H   0  0  0  0  0  0  0  0  0  0  0  0
   55.3511  155.3076   -4.3967 H   0  0  0  0  0  0  0  0  0  0  0  0
   54.3155  159.6613   -2.3183 H   0  0  0  0  0  0  0  0  0  0  0  0
   56.0101  159.3058   -1.9163 H   0  0  0  0  0  0  0  0  0  0  0  0
   54.7069  158.3128   -1.2285 H   0  0  0  0  0  0  0  0  0  0  0  0
   55.3643  155.4507   -7.0068 H   0  0  0  0  0  0  0  0  0  0  0  0
   56.0931  156.9821   -7.4944 H   0  0  0  0  0  0  0  0  0  0  0  0
   51.9319  156.8654   -4.9691 H   0  0  0  0  0  0  0  0  0  0  0  0
   55.7940  158.1702   -3.9774 H   0  0  0  0  0  0  0  0  0  0  0  0
  1  2  3  0  0  0  0
  2  9  1  0  0  0  0
  3  7  1  0  0  0  0
  3 12  1  0  0  0  0
  3 13  2  0  0  0  0
  4  5  1  0  0  0  0
  4 10  1  0  0  0  0
  5 11  1  0  0  0  0
  6  7  1  0  0  0  0
  6 10  1  0  0  0  0
  7 11  1  0  0  0  0
  8 12  1  0  0  0  0
  9 11  1  0  0  0  0
  1 14  1  0  0  0  0
  4 15  1  0  0  0  0
  4 16  1  0  0  0  0
  5 17  1  0  0  0  0
  5 18  1  0  0  0  0
  6 19  1  0  0  0  0
  6 20  1  0  0  0  0
  7 21  1  0  0  0  0
  8 22  1  0  0  0  0
  8 23  1  0  0  0  0
  8 24  1  0  0  0  0
  9 25  1  0  0  0  0
  9 26  1  0  0  0  0
 10 27  1  0  0  0  0
 12 28  1  0  0  0  0
M  END
> <FRED Chemgauss4 score>
-4.006743

$$$$
C38759430	P117559224
  -OEChem-05122015083D

 18 18  0     0  0  0  0  0  0999 V2000
   56.3130  157.4724   -4.2740 C   0  0  0  0  0  0  0  0  0  0  0  0
   54.0065  156.0425   -4.6475 C   0  0  0  0  0  0  0  0  0  0  0  0
   55.0726  155.9915   -5.4791 C   0  0  0  0  0  0  0  0  0  0  0  0
   54.1026  156.9431   -3.4459 C   0  0  0  0  0  0  0  0  0  0  0  0
   55.1032  155.1280   -6.7151 C   0  0  0  0  0  0  0  0  0  0  0  0
   56.2430  156.7039   -5.3084 N   0  0  0  0  0  0  0  0  0  0  0  0
   55.3072  157.6177   -3.3521 N   0  0  0  0  0  0  0  0  0  0  0  0
   52.8274  155.3644   -4.7622 N   0  0  0  0  0  0  0  0  0  0  0  0
   55.5199  158.4797   -2.2858 N   0  0  0  0  0  0  0  0  0  0  0  0
   53.1713  157.0375   -2.6490 O   0  0  0  0  0  0  0  0  0  0  0  0
   57.2178  158.0691   -4.0759 H   0  0  0  0  0  0  0  0  0  0  0  0
   54.7191  155.6972   -7.5551 H   0  0  0  0  0  0  0  0  0  0  0  0
   54.4881  154.2493   -6.5500 H   0  0  0  0  0  0  0  0  0  0  0  0
   56.1265  154.8235   -6.9100 H   0  0  0  0  0  0  0  0  0  0  0  0
   52.7040  154.7511   -5.5377 H   0  0  0  0  0  0  0  0  0  0  0  0
   52.1276  155.5042   -4.0668 H   0  0  0  0  0  0  0  0  0  0  0  0
   56.5138  158.4907   -2.0141 H   0  0  0  0  0  0  0  0  0  0  0  0
   55.0266  158.1486   -1.4441 H   0  0  0  0  0  0  0  0  0  0  0  0
  1  6  2  0  0  0  0
  1  7  1  0  0  0  0
  2  3  2  0  0  0  0
  2  4  1  0  0  0  0
  2  8  1  0  0  0  0
  3  5  1  0  0  0  0
  3  6  1  0  0  0  0
  4  7  1  0  0  0  0
  4 10  2  0  0  0  0
  7  9  1  0  0  0  0
  1 11  1  0  0  0  0
  5 12  1  0  0  0  0
  5 13  1  0  0  0  0
  5 14  1  0  0  0  0
  8 15  1  0  0  0  0
  8 16  1  0  0  0  0
  9 17  1  0  0  0  0
  9 18  1  0  0  0  0
M  END
> <FRED Chemgauss4 score>
-4.006148

$$$$
C38251012	P87937981
  -OEChem-05122015083D

 20 19  0     0  0  0  0  0  0999 V2000
   56.0364  156.9170   -6.6704 C   0  0  0  0  0  0  0  0  0  0  0  0
   54.0576  155.8723   -3.7101 C   0  0  0  0  0  0  0  0  0  0  0  0
   56.4981  155.8164   -5.7346 C   0  0  0  0  0  0  0  0  0  0  0  0
   53.8614  155.2359   -5.0723 C   0  0  0  0  0  0  0  0  0  0  0  0
   56.9511  158.0255   -6.6970 N   0  0  0  0  0  0  0  0  0  0  0  0
   55.8076  153.5453   -4.6400 O   0  0  0  0  0  0  0  0  0  0  0  0
   55.1067  154.0147   -7.0192 O   0  0  0  0  0  0  0  0  0  0  0  0
   52.8543  156.4906   -3.2726 O   0  0  0  0  0  0  0  0  0  0  0  0
   55.3549  154.4727   -5.6628 S   0  0  0  0  0  0  0  0  0  0  0  0
   55.9288  156.5528   -7.6968 H   0  0  0  0  0  0  0  0  0  0  0  0
   55.0699  157.3102   -6.3408 H   0  0  0  0  0  0  0  0  0  0  0  0
   54.3338  155.1144   -2.9704 H   0  0  0  0  0  0  0  0  0  0  0  0
   54.8439  156.6331   -3.7314 H   0  0  0  0  0  0  0  0  0  0  0  0
   56.5866  156.1975   -4.7128 H   0  0  0  0  0  0  0  0  0  0  0  0
   57.4626  155.4004   -6.0410 H   0  0  0  0  0  0  0  0  0  0  0  0
   53.5711  155.9736   -5.8261 H   0  0  0  0  0  0  0  0  0  0  0  0
   53.1068  154.4457   -5.0265 H   0  0  0  0  0  0  0  0  0  0  0  0
   56.6058  158.9427   -6.9324 H   0  0  0  0  0  0  0  0  0  0  0  0
   57.9428  157.8453   -6.6832 H   0  0  0  0  0  0  0  0  0  0  0  0
   53.0395  156.8779   -2.4019 H   0  0  0  0  0  0  0  0  0  0  0  0
  1  3  1  0  0  0  0
  1  5  1  0  0  0  0
  2  4  1  0  0  0  0
  2  8  1  0  0  0  0
  3  9  1  0  0  0  0
  4  9  1  0  0  0  0
  6  9  2  0  0  0  0
  7  9  2  0  0  0  0
  1 10  1  0  0  0  0
  1 11  1  0  0  0  0
  2 12  1  0  0  0  0
  2 13  1  0  0  0  0
  3 14  1  0  0  0  0
  3 15  1  0  0  0  0
  4 16  1  0  0  0  0
  4 17  1  0  0  0  0
  5 18  1  0  0  0  0
  5 19  1  0  0  0  0
  8 20  1  0  0  0  0
M  END
> <FRED Chemgauss4 score>
-3.982429

$$$$
C00039527	P77070026
  -OEChem-05122015083D

 20 20  0     1  0  0  0  0  0999 V2000
   53.6206  156.3652   -3.5310 C   0  0  0  0  0  0  0  0  0  0  0  0
   55.2305  157.3348   -5.7578 C   0  0  0  0  0  0  0  0  0  0  0  0
   55.1065  156.6133   -3.3620 C   0  0  1  0  0  0  0  0  0  0  0  0
   53.9718  156.5274   -6.0063 C   0  0  1  0  0  0  0  0  0  0  0  0
   55.8935  155.3267   -3.1754 C   0  0  0  0  0  0  0  0  0  0  0  0
   54.2673  155.1481   -6.5717 C   0  0  0  0  0  0  0  0  0  0  0  0
   55.6241  157.4320   -4.4425 N   0  0  0  0  0  0  0  0  0  0  0  0
   53.1421  156.4765   -4.8168 N   0  0  0  0  0  0  0  0  0  0  0  0
   52.9140  156.0244   -2.5822 O   0  0  0  0  0  0  0  0  0  0  0  0
   55.8819  157.8118   -6.6872 O   0  0  0  0  0  0  0  0  0  0  0  0
   55.2288  157.2264   -2.4122 H   0  0  0  0  0  0  0  0  0  0  0  0
   53.3708  157.0928   -6.7887 H   0  0  0  0  0  0  0  0  0  0  0  0
   55.8071  154.7005   -4.0648 H   0  0  0  0  0  0  0  0  0  0  0  0
   55.5101  154.7723   -2.3173 H   0  0  0  0  0  0  0  0  0  0  0  0
   56.9477  155.5518   -3.0055 H   0  0  0  0  0  0  0  0  0  0  0  0
   54.8455  154.5633   -5.8544 H   0  0  0  0  0  0  0  0  0  0  0  0
   54.8403  155.2354   -7.4963 H   0  0  0  0  0  0  0  0  0  0  0  0
   53.3356  154.6212   -6.7844 H   0  0  0  0  0  0  0  0  0  0  0  0
   56.3434  158.1422   -4.2048 H   0  0  0  0  0  0  0  0  0  0  0  0
   52.1131  156.5279   -4.9465 H   0  0  0  0  0  0  0  0  0  0  0  0
  1  3  1  0  0  0  0
  1  8  1  0  0  0  0
  1  9  2  0  0  0  0
  2  4  1  0  0  0  0
  2  7  1  0  0  0  0
  2 10  2  0  0  0  0
  3  5  1  0  0  0  0
  3  7  1  0  0  0  0
  4  6  1  0  0  0  0
  4  8  1  0  0  0  0
  3 11  1  0  0  0  0
  4 12  1  0  0  0  0
  5 13  1  0  0  0  0
  5 14  1  0  0  0  0
  5 15  1  0  0  0  0
  6 16  1  0  0  0  0
  6 17  1  0  0  0  0
  6 18  1  0  0  0  0
  7 19  1  0  0  0  0
  8 20  1  0  0  0  0
M  END
> <FRED Chemgauss4 score>
-3.981848

$$$$
C01737540	P23999360
  -OEChem-05122015083D

 11 11  0     0  0  0  0  0  0999 V2000
   55.5683  155.5784   -3.8944 C   0  0  0  0  0  0  0  0  0  0  0  0
   55.1949  155.1001   -2.6647 C   0  0  0  0  0  0  0  0  0  0  0  0
   54.2197  157.3613   -3.5750 C   0  0  0  0  0  0  0  0  0  0  0  0
   55.0852  156.7308   -4.3828 N   0  0  0  0  0  0  0  0  0  0  0  0
   54.3214  155.7773   -1.8977 N   0  0  0  0  0  0  0  0  0  0  0  0
   53.8166  156.9401   -2.3601 N   0  0  0  0  0  0  0  0  0  0  0  0
   53.6798  158.5794   -4.0392 N   0  0  0  0  0  0  0  0  0  0  0  0
   56.2696  155.0480   -4.5265 H   0  0  0  0  0  0  0  0  0  0  0  0
   55.5769  154.1728   -2.2593 H   0  0  0  0  0  0  0  0  0  0  0  0
   53.9906  158.9479   -4.9150 H   0  0  0  0  0  0  0  0  0  0  0  0
   53.0682  159.0996   -3.4436 H   0  0  0  0  0  0  0  0  0  0  0  0
  1  2  1  0  0  0  0
  1  4  2  0  0  0  0
  2  5  2  0  0  0  0
  3  4  1  0  0  0  0
  3  6  2  0  0  0  0
  3  7  1  0  0  0  0
  5  6  1  0  0  0  0
  1  8  1  0  0  0  0
  2  9  1  0  0  0  0
  7 10  1  0  0  0  0
  7 11  1  0  0  0  0
M  END
> <FRED Chemgauss4 score>
-3.979783

$$$$
C43514538	P65814456
  -OEChem-05122015083D

 30 29  0     1  0  0  0  0  0999 V2000
   55.1012  155.4778   -5.6151 C   0  0  0  0  0  0  0  0  0  0  0  0
   56.8071  156.8986   -6.8332 C   0  0  0  0  0  0  0  0  0  0  0  0
   58.1597  158.3775   -4.4831 C   0  0  0  0  0  0  0  0  0  0  0  0
   56.1674  159.8696   -4.0952 C   0  0  0  0  0  0  0  0  0  0  0  0
   55.9242  157.1573   -3.2309 C   0  0  0  0  0  0  0  0  0  0  0  0
   54.6798  156.3659   -2.8719 C   0  0  0  0  0  0  0  0  0  0  0  0
   56.2946  156.4121   -5.4847 C   0  0  1  0  0  0  0  0  0  0  0  0
   56.7286  158.6989   -4.8889 C   0  0  0  0  0  0  0  0  0  0  0  0
   54.0018  155.9755   -6.2627 N   0  0  0  0  0  0  0  0  0  0  0  0
   55.8853  157.5178   -4.6554 N   0  0  2  0  0  0  0  0  0  0  0  0
   53.5283  157.1696   -3.0950 O   0  0  0  0  0  0  0  0  0  0  0  0
   55.1211  153.9228   -4.9951 S   0  0  0  0  0  0  0  0  0  0  0  0
   56.0133  157.4044   -7.3929 H   0  0  0  0  0  0  0  0  0  0  0  0
   57.6343  157.6040   -6.6982 H   0  0  0  0  0  0  0  0  0  0  0  0
   57.1818  156.0761   -7.4521 H   0  0  0  0  0  0  0  0  0  0  0  0
   58.2184  158.1398   -3.4160 H   0  0  0  0  0  0  0  0  0  0  0  0
   58.5525  157.5230   -5.0453 H   0  0  0  0  0  0  0  0  0  0  0  0
   58.8194  159.2303   -4.6773 H   0  0  0  0  0  0  0  0  0  0  0  0
   56.1920  159.6576   -3.0207 H   0  0  0  0  0  0  0  0  0  0  0  0
   55.1286  160.0699   -4.3775 H   0  0  0  0  0  0  0  0  0  0  0  0
   56.7489  160.7830   -4.2636 H   0  0  0  0  0  0  0  0  0  0  0  0
   55.9904  158.0798   -2.6454 H   0  0  0  0  0  0  0  0  0  0  0  0
   56.8216  156.5564   -3.0554 H   0  0  0  0  0  0  0  0  0  0  0  0
   54.7016  156.0938   -1.8120 H   0  0  0  0  0  0  0  0  0  0  0  0
   54.5951  155.4546   -3.4727 H   0  0  0  0  0  0  0  0  0  0  0  0
   57.1122  155.9124   -4.9528 H   0  0  0  0  0  0  0  0  0  0  0  0
   56.6940  158.9332   -5.9584 H   0  0  0  0  0  0  0  0  0  0  0  0
   53.9744  156.9143   -6.6465 H   0  0  0  0  0  0  0  0  0  0  0  0
   53.1712  155.4078   -6.3931 H   0  0  0  0  0  0  0  0  0  0  0  0
   52.7590  156.6287   -2.8544 H   0  0  0  0  0  0  0  0  0  0  0  0
  1  7  1  0  0  0  0
  1  9  1  0  0  0  0
  1 12  2  0  0  0  0
  2  7  1  0  0  0  0
  3  8  1  0  0  0  0
  4  8  1  0  0  0  0
  5  6  1  0  0  0  0
  5 10  1  0  0  0  0
  6 11  1  0  0  0  0
  7 10  1  0  0  0  0
  8 10  1  0  0  0  0
  2 13  1  0  0  0  0
  2 14  1  0  0  0  0
  2 15  1  0  0  0  0
  3 16  1  0  0  0  0
  3 17  1  0  0  0  0
  3 18  1  0  0  0  0
  4 19  1  0  0  0  0
  4 20  1  0  0  0  0
  4 21  1  0  0  0  0
  5 22  1  0  0  0  0
  5 23  1  0  0  0  0
  6 24  1  0  0  0  0
  6 25  1  0  0  0  0
  7 26  1  0  0  0  0
  8 27  1  0  0  0  0
  9 28  1  0  0  0  0
  9 29  1  0  0  0  0
 11 30  1  0  0  0  0
M  END
> <FRED Chemgauss4 score>
-3.959565

$$$$
C83977188	P131377775
  -OEChem-05122015083D

 21 21  0     0  0  0  0  0  0999 V2000
   55.0619  159.1460   -3.1192 C   0  0  0  0  0  0  0  0  0  0  0  0
   54.8645  157.0721   -3.2493 C   0  0  0  0  0  0  0  0  0  0  0  0
   58.1124  156.9077   -4.7732 C   0  0  0  0  0  0  0  0  0  0  0  0
   54.4832  155.6273   -3.1030 C   0  0  0  0  0  0  0  0  0  0  0  0
   56.6251  156.7257   -5.0227 C   0  0  0  0  0  0  0  0  0  0  0  0
   54.3615  158.0956   -2.5989 N   0  0  0  0  0  0  0  0  0  0  0  0
   55.9666  158.8369   -4.0506 N   0  0  0  0  0  0  0  0  0  0  0  0
   55.8201  157.5047   -4.1150 N   0  0  0  0  0  0  0  0  0  0  0  0
   52.3181  155.5724   -3.9838 N   0  0  0  0  0  0  0  0  0  0  0  0
   53.6663  155.1638   -4.2161 N   0  0  0  0  0  0  0  0  0  0  0  0
   54.9083  160.1687   -2.8097 H   0  0  0  0  0  0  0  0  0  0  0  0
   58.4069  157.9566   -4.8850 H   0  0  0  0  0  0  0  0  0  0  0  0
   58.6922  156.3127   -5.4856 H   0  0  0  0  0  0  0  0  0  0  0  0
   58.3853  156.5905   -3.7613 H   0  0  0  0  0  0  0  0  0  0  0  0
   55.3766  154.9952   -3.0541 H   0  0  0  0  0  0  0  0  0  0  0  0
   53.9168  155.4618   -2.1804 H   0  0  0  0  0  0  0  0  0  0  0  0
   56.3401  155.6737   -4.9087 H   0  0  0  0  0  0  0  0  0  0  0  0
   56.3655  157.0240   -6.0448 H   0  0  0  0  0  0  0  0  0  0  0  0
   52.2755  156.1380   -3.1365 H   0  0  0  0  0  0  0  0  0  0  0  0
   52.0258  156.1862   -4.7432 H   0  0  0  0  0  0  0  0  0  0  0  0
   53.7039  154.1464   -4.2658 H   0  0  0  0  0  0  0  0  0  0  0  0
  1  6  1  0  0  0  0
  1  7  2  0  0  0  0
  2  4  1  0  0  0  0
  2  6  2  0  0  0  0
  2  8  1  0  0  0  0
  3  5  1  0  0  0  0
  4 10  1  0  0  0  0
  5  8  1  0  0  0  0
  7  8  1  0  0  0  0
  9 10  1  0  0  0  0
  1 11  1  0  0  0  0
  3 12  1  0  0  0  0
  3 13  1  0  0  0  0
  3 14  1  0  0  0  0
  4 15  1  0  0  0  0
  4 16  1  0  0  0  0
  5 17  1  0  0  0  0
  5 18  1  0  0  0  0
  9 19  1  0  0  0  0
  9 20  1  0  0  0  0
 10 21  1  0  0  0  0
M  END
> <FRED Chemgauss4 score>
-3.948097

$$$$
C39094985	P59234643
  -OEChem-05122015083D

 19 19  0     1  0  0  0  0  0999 V2000
   55.1486  156.1728   -3.1902 C   0  0  0  0  0  0  0  0  0  0  0  0
   56.0601  158.1057   -4.3006 C   0  0  0  0  0  0  0  0  0  0  0  0
   55.3757  157.6604   -2.9915 C   0  0  1  0  0  0  0  0  0  0  0  0
   55.6563  157.0677   -5.3497 C   0  0  2  0  0  0  0  0  0  0  0  0
   54.4274  157.4773   -6.1510 C   0  0  0  0  0  0  0  0  0  0  0  0
   55.4077  155.9213   -4.5092 N   0  0  0  0  0  0  0  0  0  0  0  0
   54.0705  158.2754   -2.8024 N   0  0  0  0  0  0  0  0  0  0  0  0
   54.7720  155.3916   -2.3302 O   0  0  0  0  0  0  0  0  0  0  0  0
   55.1707  154.6896   -5.0974 O   0  0  0  0  0  0  0  0  0  0  0  0
   55.8221  159.1347   -4.5901 H   0  0  0  0  0  0  0  0  0  0  0  0
   57.1474  158.0603   -4.1517 H   0  0  0  0  0  0  0  0  0  0  0  0
   56.0111  157.8376   -2.1360 H   0  0  0  0  0  0  0  0  0  0  0  0
   56.4818  156.8538   -6.0226 H   0  0  0  0  0  0  0  0  0  0  0  0
   53.5963  157.6929   -5.4784 H   0  0  0  0  0  0  0  0  0  0  0  0
   54.1346  156.6720   -6.8258 H   0  0  0  0  0  0  0  0  0  0  0  0
   54.6444  158.3693   -6.7400 H   0  0  0  0  0  0  0  0  0  0  0  0
   53.9669  159.2461   -3.0183 H   0  0  0  0  0  0  0  0  0  0  0  0
   53.3811  157.7751   -2.2787 H   0  0  0  0  0  0  0  0  0  0  0  0
   54.8109  154.1513   -4.3553 H   0  0  0  0  0  0  0  0  0  0  0  0
  1  3  1  0  0  0  0
  1  6  1  0  0  0  0
  1  8  2  0  0  0  0
  2  3  1  0  0  0  0
  2  4  1  0  0  0  0
  3  7  1  0  0  0  0
  4  5  1  0  0  0  0
  4  6  1  0  0  0  0
  6  9  1  0  0  0  0
  2 10  1  0  0  0  0
  2 11  1  0  0  0  0
  3 12  1  0  0  0  0
  4 13  1  0  0  0  0
  5 14  1  0  0  0  0
  5 15  1  0  0  0  0
  5 16  1  0  0  0  0
  7 17  1  0  0  0  0
  7 18  1  0  0  0  0
  9 19  1  0  0  0  0
M  END
> <FRED Chemgauss4 score>
-3.943552

$$$$
C54497591	P82017880
  -OEChem-05122015083D

 28 28  0     1  0  0  0  0  0999 V2000
   54.8534  155.2240   -4.3017 C   0  0  0  0  0  0  0  0  0  0  0  0
   54.3195  157.2510   -3.7402 C   0  0  0  0  0  0  0  0  0  0  0  0
   55.3903  159.1434   -1.4899 C   0  0  0  0  0  0  0  0  0  0  0  0
   55.1360  161.0626   -3.0751 C   0  0  0  0  0  0  0  0  0  0  0  0
   56.7252  159.2234   -3.5969 C   0  0  0  0  0  0  0  0  0  0  0  0
   55.6884  157.0149   -5.8403 C   0  0  0  0  0  0  0  0  0  0  0  0
   54.2142  158.7720   -3.7797 C   0  0  1  0  0  0  0  0  0  0  0  0
   55.3397  159.5342   -2.9802 C   0  0  0  0  0  0  0  0  0  0  0  0
   54.1476  155.1543   -3.1956 N   0  0  0  0  0  0  0  0  0  0  0  0
   53.8079  156.4439   -2.8384 N   0  0  0  0  0  0  0  0  0  0  0  0
   54.9863  156.5255   -4.6803 N   0  0  0  0  0  0  0  0  0  0  0  0
   54.0894  159.2427   -5.1696 N   0  0  0  0  0  0  0  0  0  0  0  0
   55.2763  154.3942   -4.8497 H   0  0  0  0  0  0  0  0  0  0  0  0
   55.5338  158.0661   -1.3575 H   0  0  0  0  0  0  0  0  0  0  0  0
   56.2223  159.6464   -0.9826 H   0  0  0  0  0  0  0  0  0  0  0  0
   54.4773  159.4339   -0.9615 H   0  0  0  0  0  0  0  0  0  0  0  0
   55.0932  161.3917   -4.1201 H   0  0  0  0  0  0  0  0  0  0  0  0
   55.9561  161.6133   -2.6027 H   0  0  0  0  0  0  0  0  0  0  0  0
   54.1990  161.3667   -2.5953 H   0  0  0  0  0  0  0  0  0  0  0  0
   56.7507  159.4817   -4.6613 H   0  0  0  0  0  0  0  0  0  0  0  0
   57.5169  159.7965   -3.0999 H   0  0  0  0  0  0  0  0  0  0  0  0
   56.9896  158.1655   -3.4973 H   0  0  0  0  0  0  0  0  0  0  0  0
   54.9793  157.0557   -6.6714 H   0  0  0  0  0  0  0  0  0  0  0  0
   56.0891  158.0105   -5.6303 H   0  0  0  0  0  0  0  0  0  0  0  0
   56.5150  156.3383   -6.0745 H   0  0  0  0  0  0  0  0  0  0  0  0
   53.2576  159.0337   -3.3049 H   0  0  0  0  0  0  0  0  0  0  0  0
   54.2837  160.1983   -5.3473 H   0  0  0  0  0  0  0  0  0  0  0  0
   53.6280  158.6470   -5.8136 H   0  0  0  0  0  0  0  0  0  0  0  0
  1  9  2  0  0  0  0
  1 11  1  0  0  0  0
  2  7  1  0  0  0  0
  2 10  2  0  0  0  0
  2 11  1  0  0  0  0
  3  8  1  0  0  0  0
  4  8  1  0  0  0  0
  5  8  1  0  0  0  0
  6 11  1  0  0  0  0
  7  8  1  0  0  0  0
  7 12  1  0  0  0  0
  9 10  1  0  0  0  0
  1 13  1  0  0  0  0
  3 14  1  0  0  0  0
  3 15  1  0  0  0  0
  3 16  1  0  0  0  0
  4 17  1  0  0  0  0
  4 18  1  0  0  0  0
  4 19  1  0  0  0  0
  5 20  1  0  0  0  0
  5 21  1  0  0  0  0
  5 22  1  0  0  0  0
  6 23  1  0  0  0  0
  6 24  1  0  0  0  0
  6 25  1  0  0  0  0
  7 26  1  0  0  0  0
 12 27  1  0  0  0  0
 12 28  1  0  0  0  0
M  END
> <FRED Chemgauss4 score>
-3.936044

$$$$
C62789402	P96350782
  -OEChem-05122015083D

 40 41  0     0  0  0  0  0  0999 V2000
   55.2843  154.3149   -6.7801 C   0  0  0  0  0  0  0  0  0  0  0  0
   56.5460  153.8162   -7.1038 C   0  0  0  0  0  0  0  0  0  0  0  0
   57.5232  155.1399   -5.3346 C   0  0  0  0  0  0  0  0  0  0  0  0
   55.1420  155.2263   -5.7336 C   0  0  0  0  0  0  0  0  0  0  0  0
   56.2614  155.6387   -5.0109 C   0  0  0  0  0  0  0  0  0  0  0  0
   57.6655  154.2286   -6.3811 C   0  0  0  0  0  0  0  0  0  0  0  0
   53.8102  155.7295   -5.4218 C   0  0  0  0  0  0  0  0  0  0  0  0
   55.7030  156.9204   -1.5586 C   0  0  0  0  0  0  0  0  0  0  0  0
   56.6730  158.7466   -2.9706 C   0  0  0  0  0  0  0  0  0  0  0  0
   55.2853  156.1701   -2.8248 C   0  0  0  0  0  0  0  0  0  0  0  0
   56.2533  157.9895   -4.2327 C   0  0  0  0  0  0  0  0  0  0  0  0
   55.7692  158.4286   -1.7821 C   0  0  0  0  0  0  0  0  0  0  0  0
   52.9570  160.7845   -2.0547 C   0  0  0  0  0  0  0  0  0  0  0  0
   54.3726  160.3209   -1.7851 C   0  0  0  0  0  0  0  0  0  0  0  0
   53.1145  155.0371   -4.5394 N   0  0  0  0  0  0  0  0  0  0  0  0
   56.1399  156.5529   -3.9573 N   0  0  0  0  0  0  0  0  0  0  0  0
   53.2838  156.8785   -6.0164 N   0  0  0  0  0  0  0  0  0  0  0  0
   51.8551  155.6006   -4.3107 O   0  0  0  0  0  0  0  0  0  0  0  0
   54.4544  158.9223   -2.0210 O   0  0  0  0  0  0  0  0  0  0  0  0
   59.2220  153.6131   -6.7813 Cl  0  0  0  0  0  0  0  0  0  0  0  0
   54.4196  153.9868   -7.3517 H   0  0  0  0  0  0  0  0  0  0  0  0
   56.6423  153.1065   -7.9212 H   0  0  0  0  0  0  0  0  0  0  0  0
   58.3955  155.4632   -4.7704 H   0  0  0  0  0  0  0  0  0  0  0  0
   54.9937  156.7005   -0.7466 H   0  0  0  0  0  0  0  0  0  0  0  0
   56.6757  156.5504   -1.2062 H   0  0  0  0  0  0  0  0  0  0  0  0
   57.7163  158.5104   -2.7225 H   0  0  0  0  0  0  0  0  0  0  0  0
   56.6546  159.8289   -3.1643 H   0  0  0  0  0  0  0  0  0  0  0  0
   55.3539  155.0881   -2.6546 H   0  0  0  0  0  0  0  0  0  0  0  0
   54.2366  156.4068   -3.0423 H   0  0  0  0  0  0  0  0  0  0  0  0
   55.2918  158.3892   -4.5775 H   0  0  0  0  0  0  0  0  0  0  0  0
   56.9892  158.1604   -5.0285 H   0  0  0  0  0  0  0  0  0  0  0  0
   56.1515  158.9205   -0.8742 H   0  0  0  0  0  0  0  0  0  0  0  0
   52.6731  160.5885   -3.0924 H   0  0  0  0  0  0  0  0  0  0  0  0
   52.2507  160.2733   -1.3923 H   0  0  0  0  0  0  0  0  0  0  0  0
   52.8583  161.8573   -1.8581 H   0  0  0  0  0  0  0  0  0  0  0  0
   54.6502  160.5199   -0.7457 H   0  0  0  0  0  0  0  0  0  0  0  0
   55.0769  160.8320   -2.4483 H   0  0  0  0  0  0  0  0  0  0  0  0
   53.8136  157.4314   -6.6805 H   0  0  0  0  0  0  0  0  0  0  0  0
   52.3622  157.2237   -5.7700 H   0  0  0  0  0  0  0  0  0  0  0  0
   51.4832  154.9866   -3.6552 H   0  0  0  0  0  0  0  0  0  0  0  0
  1  2  2  0  0  0  0
  1  4  1  0  0  0  0
  2  6  1  0  0  0  0
  3  5  1  0  0  0  0
  3  6  2  0  0  0  0
  4  5  2  0  0  0  0
  4  7  1  0  0  0  0
  5 16  1  0  0  0  0
  6 20  1  0  0  0  0
  7 15  2  0  0  0  0
  7 17  1  0  0  0  0
  8 10  1  0  0  0  0
  8 12  1  0  0  0  0
  9 11  1  0  0  0  0
  9 12  1  0  0  0  0
 10 16  1  0  0  0  0
 11 16  1  0  0  0  0
 12 19  1  0  0  0  0
 13 14  1  0  0  0  0
 14 19  1  0  0  0  0
 15 18  1  0  0  0  0
  1 21  1  0  0  0  0
  2 22  1  0  0  0  0
  3 23  1  0  0  0  0
  8 24  1  0  0  0  0
  8 25  1  0  0  0  0
  9 26  1  0  0  0  0
  9 27  1  0  0  0  0
 10 28  1  0  0  0  0
 10 29  1  0  0  0  0
 11 30  1  0  0  0  0
 11 31  1  0  0  0  0
 12 32  1  0  0  0  0
 13 33  1  0  0  0  0
 13 34  1  0  0  0  0
 13 35  1  0  0  0  0
 14 36  1  0  0  0  0
 14 37  1  0  0  0  0
 17 38  1  0  0  0  0
 17 39  1  0  0  0  0
 18 40  1  0  0  0  0
M  END
> <FRED Chemgauss4 score>
-3.930035

$$$$
C36437531	P130761431
  -OEChem-05122015083D

 22 22  0     1  0  0  0  0  0999 V2000
   55.1588  154.7475   -6.1639 C   0  0  0  0  0  0  0  0  0  0  0  0
   54.1782  154.9233   -5.0308 C   0  0  0  0  0  0  0  0  0  0  0  0
   55.6015  156.1807   -6.4070 C   0  0  2  0  0  0  0  0  0  0  0  0
   54.8628  155.9965   -4.2007 C   0  0  2  0  0  0  0  0  0  0  0  0
   56.9891  156.2910   -7.0086 C   0  0  0  0  0  0  0  0  0  0  0  0
   53.8992  156.8327   -3.3810 C   0  0  0  0  0  0  0  0  0  0  0  0
   57.3292  157.6623   -7.2152 N   0  0  0  0  0  0  0  0  0  0  0  0
   55.5711  156.8377   -5.1279 O   0  0  0  0  0  0  0  0  0  0  0  0
   53.1864  155.9804   -2.4987 O   0  0  0  0  0  0  0  0  0  0  0  0
   55.9989  154.1254   -5.8321 H   0  0  0  0  0  0  0  0  0  0  0  0
   54.7188  154.2832   -7.0509 H   0  0  0  0  0  0  0  0  0  0  0  0
   53.2191  155.2810   -5.4250 H   0  0  0  0  0  0  0  0  0  0  0  0
   53.9949  154.0037   -4.4681 H   0  0  0  0  0  0  0  0  0  0  0  0
   54.8782  156.6957   -7.0503 H   0  0  0  0  0  0  0  0  0  0  0  0
   55.6122  155.5431   -3.5407 H   0  0  0  0  0  0  0  0  0  0  0  0
   57.0068  155.7765   -7.9642 H   0  0  0  0  0  0  0  0  0  0  0  0
   57.7134  155.8477   -6.3330 H   0  0  0  0  0  0  0  0  0  0  0  0
   53.1862  157.3425   -4.0342 H   0  0  0  0  0  0  0  0  0  0  0  0
   54.4442  157.5756   -2.7927 H   0  0  0  0  0  0  0  0  0  0  0  0
   56.6146  158.3177   -7.5073 H   0  0  0  0  0  0  0  0  0  0  0  0
   58.3030  157.9347   -7.2698 H   0  0  0  0  0  0  0  0  0  0  0  0
   52.5801  156.5437   -1.9899 H   0  0  0  0  0  0  0  0  0  0  0  0
  1  2  1  0  0  0  0
  1  3  1  0  0  0  0
  2  4  1  0  0  0  0
  3  5  1  0  0  0  0
  3  8  1  0  0  0  0
  4  6  1  0  0  0  0
  4  8  1  0  0  0  0
  5  7  1  0  0  0  0
  6  9  1  0  0  0  0
  1 10  1  0  0  0  0
  1 11  1  0  0  0  0
  2 12  1  0  0  0  0
  2 13  1  0  0  0  0
  3 14  1  0  0  0  0
  4 15  1  0  0  0  0
  5 16  1  0  0  0  0
  5 17  1  0  0  0  0
  6 18  1  0  0  0  0
  6 19  1  0  0  0  0
  7 20  1  0  0  0  0
  7 21  1  0  0  0  0
  9 22  1  0  0  0  0
M  END
> <FRED Chemgauss4 score>
-3.926881

$$$$
C39118106	P138006491
  -OEChem-05122015083D

 18 18  0     1  0  0  0  0  0999 V2000
   55.4203  156.6510   -5.2831 C   0  0  0  0  0  0  0  0  0  0  0  0
   54.3591  155.9144   -6.0956 C   0  0  0  0  0  0  0  0  0  0  0  0
   52.9282  155.8585   -4.0549 C   0  0  0  0  0  0  0  0  0  0  0  0
   54.0355  156.6080   -3.3131 C   0  0  2  0  0  0  0  0  0  0  0  0
   55.3496  156.2793   -3.8669 N   0  5  0  0  0  0  0  0  0  0  0  0
   54.0375  156.1957   -1.9126 N   0  0  0  0  0  0  0  0  0  0  0  0
   53.0127  156.2052   -5.5102 N   0  3  0  0  0  0  0  0  0  0  0  0
   56.4057  156.4004   -5.6936 H   0  0  0  0  0  0  0  0  0  0  0  0
   55.3043  157.7342   -5.4204 H   0  0  0  0  0  0  0  0  0  0  0  0
   54.3367  156.2542   -7.1352 H   0  0  0  0  0  0  0  0  0  0  0  0
   54.4939  154.8274   -6.0703 H   0  0  0  0  0  0  0  0  0  0  0  0
   53.0247  154.7683   -3.9841 H   0  0  0  0  0  0  0  0  0  0  0  0
   51.9298  156.1540   -3.7162 H   0  0  0  0  0  0  0  0  0  0  0  0
   53.8386  157.6872   -3.3520 H   0  0  0  0  0  0  0  0  0  0  0  0
   53.1607  156.0017   -1.4791 H   0  0  0  0  0  0  0  0  0  0  0  0
   54.8769  156.3182   -1.3885 H   0  0  0  0  0  0  0  0  0  0  0  0
   52.7887  157.2019   -5.6394 H   0  0  0  0  0  0  0  0  0  0  0  0
   52.2923  155.6857   -6.0303 H   0  0  0  0  0  0  0  0  0  0  0  0
  1  2  1  0  0  0  0
  1  5  1  0  0  0  0
  2  7  1  0  0  0  0
  3  4  1  0  0  0  0
  3  7  1  0  0  0  0
  4  5  1  0  0  0  0
  4  6  1  0  0  0  0
  1  8  1  0  0  0  0
  1  9  1  0  0  0  0
  2 10  1  0  0  0  0
  2 11  1  0  0  0  0
  3 12  1  0  0  0  0
  3 13  1  0  0  0  0
  4 14  1  0  0  0  0
  6 15  1  0  0  0  0
  6 16  1  0  0  0  0
  7 17  1  0  0  0  0
  7 18  1  0  0  0  0
M  CHG  2   5  -1   7   1
M  END
> <FRED Chemgauss4 score>
-3.922722

$$$$
C97786166	P155186326
  -OEChem-05122015083D

 37 38  0     1  0  0  0  0  0999 V2000
   56.8555  157.8037   -3.9098 C   0  0  0  0  0  0  0  0  0  0  0  0
   57.1508  158.0818   -2.5798 C   0  0  0  0  0  0  0  0  0  0  0  0
   54.5447  157.8286   -3.3476 C   0  0  0  0  0  0  0  0  0  0  0  0
   57.9115  155.7639   -7.6502 C   0  0  0  0  0  0  0  0  0  0  0  0
   55.5301  157.6731   -4.3091 C   0  0  0  0  0  0  0  0  0  0  0  0
   57.3436  156.9659   -7.1871 C   0  0  0  0  0  0  0  0  0  0  0  0
   56.0929  158.2192   -1.6957 C   0  0  0  0  0  0  0  0  0  0  0  0
   56.2338  156.5715   -6.4806 C   0  0  0  0  0  0  0  0  0  0  0  0
   56.3731  158.5182   -0.2608 C   0  0  0  0  0  0  0  0  0  0  0  0
   55.5788  153.9516   -4.5342 C   0  0  0  0  0  0  0  0  0  0  0  0
   54.9856  153.0852   -6.8372 C   0  0  0  0  0  0  0  0  0  0  0  0
   55.1815  157.3755   -5.7242 C   0  0  2  0  0  0  0  0  0  0  0  0
   55.2247  154.3259   -5.9748 C   0  0  0  0  0  0  0  0  0  0  0  0
   54.7928  158.0992   -2.0465 N   0  0  0  0  0  0  0  0  0  0  0  0
   57.2196  154.6865   -7.2698 N   0  0  0  0  0  0  0  0  0  0  0  0
   56.2056  155.2102   -6.5601 N   0  0  0  0  0  0  0  0  0  0  0  0
   53.7513  159.2218   -5.8418 N   0  0  0  0  0  0  0  0  0  0  0  0
   54.8711  158.6111   -6.4697 N   0  0  0  0  0  0  0  0  0  0  0  0
   57.9345  158.5260   -7.4615 Cl  0  0  0  0  0  0  0  0  0  0  0  0
   57.6633  157.6906   -4.6275 H   0  0  0  0  0  0  0  0  0  0  0  0
   58.1806  158.1861   -2.2554 H   0  0  0  0  0  0  0  0  0  0  0  0
   53.4927  157.7378   -3.6001 H   0  0  0  0  0  0  0  0  0  0  0  0
   58.8009  155.6236   -8.2485 H   0  0  0  0  0  0  0  0  0  0  0  0
   56.4062  159.6019   -0.0968 H   0  0  0  0  0  0  0  0  0  0  0  0
   55.6021  158.0902    0.3924 H   0  0  0  0  0  0  0  0  0  0  0  0
   57.3323  158.0882    0.0549 H   0  0  0  0  0  0  0  0  0  0  0  0
   56.5157  153.3873   -4.4772 H   0  0  0  0  0  0  0  0  0  0  0  0
   54.7902  153.3329   -4.0928 H   0  0  0  0  0  0  0  0  0  0  0  0
   55.6909  154.8480   -3.9142 H   0  0  0  0  0  0  0  0  0  0  0  0
   55.8959  152.4800   -6.9113 H   0  0  0  0  0  0  0  0  0  0  0  0
   54.6889  153.3732   -7.8514 H   0  0  0  0  0  0  0  0  0  0  0  0
   54.1945  152.4485   -6.4271 H   0  0  0  0  0  0  0  0  0  0  0  0
   54.2377  156.7998   -5.7776 H   0  0  0  0  0  0  0  0  0  0  0  0
   54.2803  154.8844   -5.9416 H   0  0  0  0  0  0  0  0  0  0  0  0
   53.5170  158.7163   -4.9878 H   0  0  0  0  0  0  0  0  0  0  0  0
   54.0272  160.1570   -5.5449 H   0  0  0  0  0  0  0  0  0  0  0  0
   54.6406  158.3610   -7.4238 H   0  0  0  0  0  0  0  0  0  0  0  0
  1  2  2  0  0  0  0
  1  5  1  0  0  0  0
  2  7  1  0  0  0  0
  3  5  2  0  0  0  0
  3 14  1  0  0  0  0
  4  6  1  0  0  0  0
  4 15  2  0  0  0  0
  5 12  1  0  0  0  0
  6  8  2  0  0  0  0
  6 19  1  0  0  0  0
  7  9  1  0  0  0  0
  7 14  2  0  0  0  0
  8 12  1  0  0  0  0
  8 16  1  0  0  0  0
 10 13  1  0  0  0  0
 11 13  1  0  0  0  0
 12 18  1  0  0  0  0
 13 16  1  0  0  0  0
 15 16  1  0  0  0  0
 17 18  1  0  0  0  0
  1 20  1  0  0  0  0
  2 21  1  0  0  0  0
  3 22  1  0  0  0  0
  4 23  1  0  0  0  0
  9 24  1  0  0  0  0
  9 25  1  0  0  0  0
  9 26  1  0  0  0  0
 10 27  1  0  0  0  0
 10 28  1  0  0  0  0
 10 29  1  0  0  0  0
 11 30  1  0  0  0  0
 11 31  1  0  0  0  0
 11 32  1  0  0  0  0
 12 33  1  0  0  0  0
 13 34  1  0  0  0  0
 17 35  1  0  0  0  0
 17 36  1  0  0  0  0
 18 37  1  0  0  0  0
M  END
> <FRED Chemgauss4 score>
-3.892154

$$$$
C39950027	P97167809
  -OEChem-05122015083D

 46 49  0     1  0  0  0  0  0999 V2000
   57.6056  161.1461   -0.3115 C   0  0  0  0  0  0  0  0  0  0  0  0
   57.4378  161.4835   -1.5975 C   0  0  0  0  0  0  0  0  0  0  0  0
   57.2423  159.8463    0.2105 C   0  0  0  0  0  0  0  0  0  0  0  0
   52.5075  161.6445   -6.6685 C   0  0  0  0  0  0  0  0  0  0  0  0
   53.1943  160.3589   -6.6507 C   0  0  0  0  0  0  0  0  0  0  0  0
   50.3437  158.5332   -7.9175 C   0  0  0  0  0  0  0  0  0  0  0  0
   51.1634  161.7146   -6.6413 C   0  0  0  0  0  0  0  0  0  0  0  0
   56.5016  158.9887   -0.5078 C   0  0  0  0  0  0  0  0  0  0  0  0
   49.1417  159.3650   -8.0103 C   0  0  0  0  0  0  0  0  0  0  0  0
   52.5260  159.2131   -6.8837 C   0  0  0  0  0  0  0  0  0  0  0  0
   51.1035  159.2727   -7.1122 C   0  0  0  0  0  0  0  0  0  0  0  0
   56.8284  160.4642   -2.4762 C   0  0  0  0  0  0  0  0  0  0  0  0
   53.2867  157.9507   -6.9213 C   0  0  0  0  0  0  0  0  0  0  0  0
   55.0036  157.4003   -3.0777 C   0  0  0  0  0  0  0  0  0  0  0  0
   56.2834  159.2044   -4.2071 C   0  0  0  0  0  0  0  0  0  0  0  0
   50.3507  160.4520   -6.5622 C   0  0  2  0  0  0  0  0  0  0  0  0
   55.9985  159.3534   -1.8682 C   0  0  1  0  0  0  0  0  0  0  0  0
   56.1767  158.3204   -2.9653 C   0  0  1  0  0  0  0  0  0  0  0  0
   53.4573  155.7382   -5.8115 C   0  0  0  0  0  0  0  0  0  0  0  0
   54.0559  155.5406   -4.4289 C   0  0  0  0  0  0  0  0  0  0  0  0
   49.1012  160.4870   -7.3522 N   0  0  0  0  0  0  0  0  0  0  0  0
   56.9599  160.4439   -3.7667 N   0  0  0  0  0  0  0  0  0  0  0  0
   52.8671  157.0407   -5.9661 N   0  0  0  0  0  0  0  0  0  0  0  0
   55.0807  156.5174   -4.1379 N   0  0  0  0  0  0  0  0  0  0  0  0
   54.1845  157.7865   -7.7401 O   0  0  0  0  0  0  0  0  0  0  0  0
   54.0922  157.4809   -2.2625 O   0  0  0  0  0  0  0  0  0  0  0  0
   58.0718  161.8432    0.3772 H   0  0  0  0  0  0  0  0  0  0  0  0
   57.7671  162.4284   -2.0083 H   0  0  0  0  0  0  0  0  0  0  0  0
   57.5817  159.5869    1.2074 H   0  0  0  0  0  0  0  0  0  0  0  0
   53.1133  162.5434   -6.6915 H   0  0  0  0  0  0  0  0  0  0  0  0
   54.2668  160.3795   -6.4853 H   0  0  0  0  0  0  0  0  0  0  0  0
   50.5925  157.6893   -8.5338 H   0  0  0  0  0  0  0  0  0  0  0  0
   50.6639  162.6776   -6.6236 H   0  0  0  0  0  0  0  0  0  0  0  0
   56.2241  158.0283   -0.0847 H   0  0  0  0  0  0  0  0  0  0  0  0
   48.3367  159.0436   -8.6871 H   0  0  0  0  0  0  0  0  0  0  0  0
   56.8800  158.7101   -4.9814 H   0  0  0  0  0  0  0  0  0  0  0  0
   55.3071  159.4532   -4.6402 H   0  0  0  0  0  0  0  0  0  0  0  0
   50.0844  160.2785   -5.5109 H   0  0  0  0  0  0  0  0  0  0  0  0
   54.9563  159.6895   -1.7948 H   0  0  0  0  0  0  0  0  0  0  0  0
   57.0894  157.7274   -2.8312 H   0  0  0  0  0  0  0  0  0  0  0  0
   52.6770  154.9989   -6.0183 H   0  0  0  0  0  0  0  0  0  0  0  0
   54.2360  155.6459   -6.5749 H   0  0  0  0  0  0  0  0  0  0  0  0
   53.2824  155.6482   -3.6623 H   0  0  0  0  0  0  0  0  0  0  0  0
   54.5086  154.5489   -4.3284 H   0  0  0  0  0  0  0  0  0  0  0  0
   52.1047  157.3059   -5.3439 H   0  0  0  0  0  0  0  0  0  0  0  0
   55.8964  156.5567   -4.7415 H   0  0  0  0  0  0  0  0  0  0  0  0
  1  2  2  0  0  0  0
  1  3  1  0  0  0  0
  2 12  1  0  0  0  0
  3  8  2  0  0  0  0
  4  5  1  0  0  0  0
  4  7  2  0  0  0  0
  5 10  2  0  0  0  0
  6  9  1  0  0  0  0
  6 11  2  0  0  0  0
  7 16  1  0  0  0  0
  8 17  1  0  0  0  0
  9 21  2  0  0  0  0
 10 11  1  0  0  0  0
 10 13  1  0  0  0  0
 11 16  1  0  0  0  0
 12 17  1  0  0  0  0
 12 22  2  0  0  0  0
 13 23  1  0  0  0  0
 13 25  2  0  0  0  0
 14 18  1  0  0  0  0
 14 24  1  0  0  0  0
 14 26  2  0  0  0  0
 15 18  1  0  0  0  0
 15 22  1  0  0  0  0
 16 21  1  0  0  0  0
 17 18  1  0  0  0  0
 19 20  1  0  0  0  0
 19 23  1  0  0  0  0
 20 24  1  0  0  0  0
  1 27  1  0  0  0  0
  2 28  1  0  0  0  0
  3 29  1  0  0  0  0
  4 30  1  0  0  0  0
  5 31  1  0  0  0  0
  6 32  1  0  0  0  0
  7 33  1  0  0  0  0
  8 34  1  0  0  0  0
  9 35  1  0  0  0  0
 15 36  1  0  0  0  0
 15 37  1  0  0  0  0
 16 38  1  0  0  0  0
 17 39  1  0  0  0  0
 18 40  1  0  0  0  0
 19 41  1  0  0  0  0
 19 42  1  0  0  0  0
 20 43  1  0  0  0  0
 20 44  1  0  0  0  0
 23 45  1  0  0  0  0
 24 46  1  0  0  0  0
M  END
> <FRED Chemgauss4 score>
-3.891712

$$$$
C73738921	P114858598
  -OEChem-05122015083D

 16 16  0     0  0  0  0  0  0999 V2000
   54.2866  155.6893   -4.1175 C   0  0  0  0  0  0  0  0  0  0  0  0
   56.0844  156.2040   -5.8612 C   0  0  0  0  0  0  0  0  0  0  0  0
   54.0982  157.5752   -5.4705 C   0  0  0  0  0  0  0  0  0  0  0  0
   55.4671  155.2128   -4.9229 C   0  0  0  0  0  0  0  0  0  0  0  0
   53.6034  156.8004   -4.5506 N   0  0  0  0  0  0  0  0  0  0  0  0
   55.3111  157.3212   -6.0867 N   0  0  0  0  0  0  0  0  0  0  0  0
   52.2903  159.0159   -5.2403 N   0  0  0  0  0  0  0  0  0  0  0  0
   53.4518  158.7078   -5.8918 N   0  0  0  0  0  0  0  0  0  0  0  0
   53.9334  155.0444   -3.1300 O   0  0  0  0  0  0  0  0  0  0  0  0
   57.1681  156.0007   -6.4042 O   0  0  0  0  0  0  0  0  0  0  0  0
   56.2451  154.8933   -4.2206 H   0  0  0  0  0  0  0  0  0  0  0  0
   55.1425  154.3489   -5.5130 H   0  0  0  0  0  0  0  0  0  0  0  0
   55.6553  158.0070   -6.7522 H   0  0  0  0  0  0  0  0  0  0  0  0
   52.2358  160.0309   -5.1662 H   0  0  0  0  0  0  0  0  0  0  0  0
   52.3618  158.6680   -4.2850 H   0  0  0  0  0  0  0  0  0  0  0  0
   53.8506  159.2836   -6.5965 H   0  0  0  0  0  0  0  0  0  0  0  0
  1  4  1  0  0  0  0
  1  5  1  0  0  0  0
  1  9  2  0  0  0  0
  2  4  1  0  0  0  0
  2  6  1  0  0  0  0
  2 10  2  0  0  0  0
  3  5  2  0  0  0  0
  3  6  1  0  0  0  0
  3  8  1  0  0  0  0
  7  8  1  0  0  0  0
  4 11  1  0  0  0  0
  4 12  1  0  0  0  0
  6 13  1  0  0  0  0
  7 14  1  0  0  0  0
  7 15  1  0  0  0  0
  8 16  1  0  0  0  0
M  END
> <FRED Chemgauss4 score>
-3.890729

$$$$
C95924454	P151032095
  -OEChem-05122015083D

 20 20  0     1  0  0  0  0  0999 V2000
   54.4156  156.9833   -4.6257 C   0  0  0  0  0  0  0  0  0  0  0  0
   54.5586  155.3929   -6.3223 C   0  0  0  0  0  0  0  0  0  0  0  0
   53.5832  156.3894   -5.7211 C   0  0  1  0  0  0  0  0  0  0  0  0
   58.9950  158.1779   -4.4980 C   0  0  0  0  0  0  0  0  0  0  0  0
   56.9574  157.0318   -4.2755 C   0  0  0  0  0  0  0  0  0  0  0  0
   55.7229  156.7346   -4.9615 N   0  0  0  0  0  0  0  0  0  0  0  0
   52.4050  155.7543   -5.1658 N   0  0  0  0  0  0  0  0  0  0  0  0
   53.9955  157.5890   -3.6516 O   0  0  0  0  0  0  0  0  0  0  0  0
   55.8462  155.9932   -6.1529 O   0  0  0  0  0  0  0  0  0  0  0  0
   57.7458  157.8733   -5.1034 O   0  0  0  0  0  0  0  0  0  0  0  0
   54.5631  154.4268   -5.8029 H   0  0  0  0  0  0  0  0  0  0  0  0
   54.3659  155.2184   -7.3850 H   0  0  0  0  0  0  0  0  0  0  0  0
   53.3253  157.1793   -6.4258 H   0  0  0  0  0  0  0  0  0  0  0  0
   59.5739  158.8254   -5.1611 H   0  0  0  0  0  0  0  0  0  0  0  0
   59.5430  157.2520   -4.3057 H   0  0  0  0  0  0  0  0  0  0  0  0
   58.8151  158.6955   -3.5528 H   0  0  0  0  0  0  0  0  0  0  0  0
   57.4727  156.0865   -4.0802 H   0  0  0  0  0  0  0  0  0  0  0  0
   56.7099  157.5336   -3.3351 H   0  0  0  0  0  0  0  0  0  0  0  0
   51.9607  155.0257   -5.6906 H   0  0  0  0  0  0  0  0  0  0  0  0
   51.9502  156.1872   -4.3849 H   0  0  0  0  0  0  0  0  0  0  0  0
  1  3  1  0  0  0  0
  1  6  1  0  0  0  0
  1  8  2  0  0  0  0
  2  3  1  0  0  0  0
  2  9  1  0  0  0  0
  3  7  1  0  0  0  0
  4 10  1  0  0  0  0
  5  6  1  0  0  0  0
  5 10  1  0  0  0  0
  6  9  1  0  0  0  0
  2 11  1  0  0  0  0
  2 12  1  0  0  0  0
  3 13  1  0  0  0  0
  4 14  1  0  0  0  0
  4 15  1  0  0  0  0
  4 16  1  0  0  0  0
  5 17  1  0  0  0  0
  5 18  1  0  0  0  0
  7 19  1  0  0  0  0
  7 20  1  0  0  0  0
M  END
> <FRED Chemgauss4 score>
-3.864336

$$$$
C82844521	P129492673
  -OEChem-05122015083D

 24 24  0     1  0  0  0  0  0999 V2000
   54.9549  155.3421   -5.7645 C   0  0  0  0  0  0  0  0  0  0  0  0
   56.7891  154.9604   -6.7748 C   0  0  0  0  0  0  0  0  0  0  0  0
   55.7583  156.4232   -5.4886 C   0  0  0  0  0  0  0  0  0  0  0  0
   58.1090  156.9971   -6.1708 C   0  0  0  0  0  0  0  0  0  0  0  0
   55.7192  158.1225   -1.6162 C   0  0  0  0  0  0  0  0  0  0  0  0
   54.4911  157.4299   -3.5585 C   0  0  0  0  0  0  0  0  0  0  0  0
   55.5181  157.6696   -4.6680 C   0  0  2  0  0  0  0  0  0  0  0  0
   55.6025  154.4350   -6.5654 N   0  0  0  0  0  0  0  0  0  0  0  0
   56.9301  156.1642   -6.1421 N   0  0  0  0  0  0  0  0  0  0  0  0
   54.6306  158.4422   -2.5360 N   0  0  0  0  0  0  0  0  0  0  0  0
   55.0563  158.7016   -5.5401 O   0  0  0  0  0  0  0  0  0  0  0  0
   53.9428  155.1684   -5.4284 H   0  0  0  0  0  0  0  0  0  0  0  0
   57.5785  154.5203   -7.3687 H   0  0  0  0  0  0  0  0  0  0  0  0
   58.0205  157.6779   -7.0215 H   0  0  0  0  0  0  0  0  0  0  0  0
   58.1797  157.5604   -5.2361 H   0  0  0  0  0  0  0  0  0  0  0  0
   58.9954  156.3653   -6.2760 H   0  0  0  0  0  0  0  0  0  0  0  0
   56.6612  158.0368   -2.1642 H   0  0  0  0  0  0  0  0  0  0  0  0
   55.5195  157.1745   -1.1093 H   0  0  0  0  0  0  0  0  0  0  0  0
   55.8206  158.9082   -0.8628 H   0  0  0  0  0  0  0  0  0  0  0  0
   54.6370  156.4469   -3.0975 H   0  0  0  0  0  0  0  0  0  0  0  0
   53.4689  157.4721   -3.9504 H   0  0  0  0  0  0  0  0  0  0  0  0
   56.4659  158.0184   -4.2395 H   0  0  0  0  0  0  0  0  0  0  0  0
   53.7611  158.5173   -2.0018 H   0  0  0  0  0  0  0  0  0  0  0  0
   55.7559  158.8384   -6.1964 H   0  0  0  0  0  0  0  0  0  0  0  0
  1  3  2  0  0  0  0
  1  8  1  0  0  0  0
  2  8  2  0  0  0  0
  2  9  1  0  0  0  0
  3  7  1  0  0  0  0
  3  9  1  0  0  0  0
  4  9  1  0  0  0  0
  5 10  1  0  0  0  0
  6  7  1  0  0  0  0
  6 10  1  0  0  0  0
  7 11  1  0  0  0  0
  1 12  1  0  0  0  0
  2 13  1  0  0  0  0
  4 14  1  0  0  0  0
  4 15  1  0  0  0  0
  4 16  1  0  0  0  0
  5 17  1  0  0  0  0
  5 18  1  0  0  0  0
  5 19  1  0  0  0  0
  6 20  1  0  0  0  0
  6 21  1  0  0  0  0
  7 22  1  0  0  0  0
 10 23  1  0  0  0  0
 11 24  1  0  0  0  0
M  END
> <FRED Chemgauss4 score>
-3.863078

$$$$
C19202003	P141423228
  -OEChem-05122015083D

 18 19  0     1  0  0  0  0  0999 V2000
   56.2532  156.0779   -4.4114 C   0  0  0  0  0  0  0  0  0  0  0  0
   53.7077  157.1207   -4.5649 C   0  0  0  0  0  0  0  0  0  0  0  0
   54.7096  157.3861   -5.4115 C   0  0  0  0  0  0  0  0  0  0  0  0
   53.8992  156.2216   -3.4320 C   0  0  0  0  0  0  0  0  0  0  0  0
   52.8766  158.5453   -6.0809 C   0  0  0  0  0  0  0  0  0  0  0  0
   55.2840  155.6181   -3.3381 C   0  0  2  0  0  0  0  0  0  0  0  0
   55.9827  156.9041   -5.3796 N   0  0  0  0  0  0  0  0  0  0  0  0
   52.5756  157.7953   -4.9201 N   0  0  0  0  0  0  0  0  0  0  0  0
   54.2364  158.2617   -6.3633 N   0  0  0  0  0  0  0  0  0  0  0  0
   55.8519  156.0188   -2.0565 N   0  0  0  0  0  0  0  0  0  0  0  0
   52.9991  155.9886   -2.6329 O   0  0  0  0  0  0  0  0  0  0  0  0
   51.8619  159.5389   -6.9268 S   0  0  0  0  0  0  0  0  0  0  0  0
   57.2733  155.6574   -4.3704 H   0  0  0  0  0  0  0  0  0  0  0  0
   55.2022  154.5282   -3.4033 H   0  0  0  0  0  0  0  0  0  0  0  0
   51.6901  157.7561   -4.4312 H   0  0  0  0  0  0  0  0  0  0  0  0
   54.7856  158.6302   -7.1297 H   0  0  0  0  0  0  0  0  0  0  0  0
   56.8450  156.0100   -1.9575 H   0  0  0  0  0  0  0  0  0  0  0  0
   55.2399  156.0894   -1.2711 H   0  0  0  0  0  0  0  0  0  0  0  0
  1  6  1  0  0  0  0
  1  7  2  0  0  0  0
  2  3  2  0  0  0  0
  2  4  1  0  0  0  0
  2  8  1  0  0  0  0
  3  7  1  0  0  0  0
  3  9  1  0  0  0  0
  4  6  1  0  0  0  0
  4 11  2  0  0  0  0
  5  8  1  0  0  0  0
  5  9  1  0  0  0  0
  5 12  2  0  0  0  0
  6 10  1  0  0  0  0
  1 13  1  0  0  0  0
  6 14  1  0  0  0  0
  8 15  1  0  0  0  0
  9 16  1  0  0  0  0
 10 17  1  0  0  0  0
 10 18  1  0  0  0  0
M  END
> <FRED Chemgauss4 score>
-3.861303

$$$$
C73658704	P114715255
  -OEChem-05122015083D

 15 15  0     0  0  0  0  0  0999 V2000
   53.5630  155.7744   -3.2590 C   0  0  0  0  0  0  0  0  0  0  0  0
   53.7796  154.8071   -4.3810 C   0  0  0  0  0  0  0  0  0  0  0  0
   53.9346  157.6731   -4.5950 C   0  0  0  0  0  0  0  0  0  0  0  0
   54.5573  156.7099   -5.5943 C   0  0  0  0  0  0  0  0  0  0  0  0
   53.6499  157.0555   -3.2971 N   0  0  0  0  0  0  0  0  0  0  0  0
   53.7346  155.5093   -5.6572 N   0  0  0  0  0  0  0  0  0  0  0  0
   53.2977  155.1441   -2.0930 O   0  0  0  0  0  0  0  0  0  0  0  0
   54.7514  154.3212   -4.2387 H   0  0  0  0  0  0  0  0  0  0  0  0
   52.9994  154.0400   -4.3583 H   0  0  0  0  0  0  0  0  0  0  0  0
   54.6164  158.5163   -4.4385 H   0  0  0  0  0  0  0  0  0  0  0  0
   53.0011  158.0868   -4.9953 H   0  0  0  0  0  0  0  0  0  0  0  0
   54.5955  157.1834   -6.5811 H   0  0  0  0  0  0  0  0  0  0  0  0
   55.5880  156.4613   -5.3128 H   0  0  0  0  0  0  0  0  0  0  0  0
   54.0769  154.8927   -6.3932 H   0  0  0  0  0  0  0  0  0  0  0  0
   53.1585  155.7793   -1.3700 H   0  0  0  0  0  0  0  0  0  0  0  0
  1  2  1  0  0  0  0
  1  5  2  0  0  0  0
  1  7  1  0  0  0  0
  2  6  1  0  0  0  0
  3  4  1  0  0  0  0
  3  5  1  0  0  0  0
  4  6  1  0  0  0  0
  2  8  1  0  0  0  0
  2  9  1  0  0  0  0
  3 10  1  0  0  0  0
  3 11  1  0  0  0  0
  4 12  1  0  0  0  0
  4 13  1  0  0  0  0
  6 14  1  0  0  0  0
  7 15  1  0  0  0  0
M  END
> <FRED Chemgauss4 score>
-3.849888

$$$$
C83651566	P130859537
  -OEChem-05122015083D

 17 17  0     0  0  0  0  0  0999 V2000
   54.7563  163.7924   -3.8499 C   0  0  0  0  0  0  0  0  0  0  0  0
   55.5677  161.8461   -3.3124 C   0  0  0  0  0  0  0  0  0  0  0  0
   55.0680  158.1562   -2.6522 C   0  0  0  0  0  0  0  0  0  0  0  0
   54.6180  159.5551   -3.0386 C   0  0  0  0  0  0  0  0  0  0  0  0
   54.4517  162.4576   -3.6439 N   0  0  0  0  0  0  0  0  0  0  0  0
   56.0039  164.2382   -3.7040 N   0  0  0  0  0  0  0  0  0  0  0  0
   53.9868  157.2084   -2.6900 N   0  0  0  0  0  0  0  0  0  0  0  0
   55.7056  160.4954   -3.0193 N   0  0  0  0  0  0  0  0  0  0  0  0
   56.9171  162.9053   -3.2679 S   0  0  0  0  0  0  0  0  0  0  0  0
   53.9817  164.4911   -4.1334 H   0  0  0  0  0  0  0  0  0  0  0  0
   55.4853  158.1361   -1.6404 H   0  0  0  0  0  0  0  0  0  0  0  0
   55.8314  157.8005   -3.3511 H   0  0  0  0  0  0  0  0  0  0  0  0
   54.2112  159.5551   -4.0545 H   0  0  0  0  0  0  0  0  0  0  0  0
   53.8477  159.9289   -2.3563 H   0  0  0  0  0  0  0  0  0  0  0  0
   53.0765  157.4886   -2.3616 H   0  0  0  0  0  0  0  0  0  0  0  0
   54.1927  156.2347   -2.8469 H   0  0  0  0  0  0  0  0  0  0  0  0
   56.6329  160.1569   -2.7760 H   0  0  0  0  0  0  0  0  0  0  0  0
  1  5  1  0  0  0  0
  1  6  2  0  0  0  0
  2  5  2  0  0  0  0
  2  8  1  0  0  0  0
  2  9  1  0  0  0  0
  3  4  1  0  0  0  0
  3  7  1  0  0  0  0
  4  8  1  0  0  0  0
  6  9  1  0  0  0  0
  1 10  1  0  0  0  0
  3 11  1  0  0  0  0
  3 12  1  0  0  0  0
  4 13  1  0  0  0  0
  4 14  1  0  0  0  0
  7 15  1  0  0  0  0
  7 16  1  0  0  0  0
  8 17  1  0  0  0  0
M  END
> <FRED Chemgauss4 score>
-3.841277

$$$$
C41059448	P62324462
  -OEChem-05122015083D

 20 21  0     1  0  0  0  0  0999 V2000
   55.8014  154.4927   -5.3563 C   0  0  0  0  0  0  0  0  0  0  0  0
   56.0447  155.4947   -6.2723 C   0  0  0  0  0  0  0  0  0  0  0  0
   55.2558  156.2154   -4.1135 C   0  0  0  0  0  0  0  0  0  0  0  0
   55.4372  159.0105   -1.3524 C   0  0  0  0  0  0  0  0  0  0  0  0
   55.5990  159.5058   -2.7624 C   0  0  0  0  0  0  0  0  0  0  0  0
   55.7877  158.0466   -2.4519 C   0  0  0  0  0  0  0  0  0  0  0  0
   54.7886  157.0452   -2.9180 C   0  0  1  0  0  0  0  0  0  0  0  0
   55.3494  154.9042   -4.1177 N   0  0  0  0  0  0  0  0  0  0  0  0
   53.5056  157.6707   -3.2189 N   0  0  0  0  0  0  0  0  0  0  0  0
   55.6949  157.0176   -5.5656 S   0  0  0  0  0  0  0  0  0  0  0  0
   55.9383  153.4360   -5.5430 H   0  0  0  0  0  0  0  0  0  0  0  0
   56.3974  155.4071   -7.2902 H   0  0  0  0  0  0  0  0  0  0  0  0
   56.2019  159.2787   -0.6339 H   0  0  0  0  0  0  0  0  0  0  0  0
   54.4344  158.9674   -0.9453 H   0  0  0  0  0  0  0  0  0  0  0  0
   54.7047  159.7950   -3.3005 H   0  0  0  0  0  0  0  0  0  0  0  0
   56.4722  160.1054   -2.9880 H   0  0  0  0  0  0  0  0  0  0  0  0
   56.7974  157.6544   -2.4740 H   0  0  0  0  0  0  0  0  0  0  0  0
   54.5564  156.3399   -2.0942 H   0  0  0  0  0  0  0  0  0  0  0  0
   53.2156  158.4432   -2.6582 H   0  0  0  0  0  0  0  0  0  0  0  0
   52.8784  157.1889   -3.8272 H   0  0  0  0  0  0  0  0  0  0  0  0
  1  2  2  0  0  0  0
  1  8  1  0  0  0  0
  2 10  1  0  0  0  0
  3  7  1  0  0  0  0
  3  8  2  0  0  0  0
  3 10  1  0  0  0  0
  4  5  1  0  0  0  0
  4  6  1  0  0  0  0
  5  6  1  0  0  0  0
  6  7  1  0  0  0  0
  7  9  1  0  0  0  0
  1 11  1  0  0  0  0
  2 12  1  0  0  0  0
  4 13  1  0  0  0  0
  4 14  1  0  0  0  0
  5 15  1  0  0  0  0
  5 16  1  0  0  0  0
  6 17  1  0  0  0  0
  7 18  1  0  0  0  0
  9 19  1  0  0  0  0
  9 20  1  0  0  0  0
M  END
> <FRED Chemgauss4 score>
-3.838076

$$$$
C20283868	P153655873
  -OEChem-05122015083D

 12 12  0     0  0  0  0  0  0999 V2000
   54.0071  155.8827   -2.7346 C   0  0  0  0  0  0  0  0  0  0  0  0
   54.3092  155.2993   -4.8028 C   0  0  0  0  0  0  0  0  0  0  0  0
   54.8892  155.0204   -6.0716 C   0  0  0  0  0  0  0  0  0  0  0  0
   52.8425  155.5068   -3.2128 N   0  0  0  0  0  0  0  0  0  0  0  0
   53.0346  155.1356   -4.5286 N   0  0  0  0  0  0  0  0  0  0  0  0
   54.9592  155.7682   -3.7017 N   0  0  0  0  0  0  0  0  0  0  0  0
   54.9351  156.0401   -7.0170 N   0  0  0  0  0  0  0  0  0  0  0  0
   55.5442  153.5090   -6.4579 S   0  0  0  0  0  0  0  0  0  0  0  0
   54.2164  156.2321   -1.7344 H   0  0  0  0  0  0  0  0  0  0  0  0
   55.9440  155.9847   -3.6171 H   0  0  0  0  0  0  0  0  0  0  0  0
   54.5620  156.9631   -6.8191 H   0  0  0  0  0  0  0  0  0  0  0  0
   55.3312  155.9012   -7.9409 H   0  0  0  0  0  0  0  0  0  0  0  0
  1  4  2  0  0  0  0
  1  6  1  0  0  0  0
  2  3  1  0  0  0  0
  2  5  2  0  0  0  0
  2  6  1  0  0  0  0
  3  7  1  0  0  0  0
  3  8  2  0  0  0  0
  4  5  1  0  0  0  0
  1  9  1  0  0  0  0
  6 10  1  0  0  0  0
  7 11  1  0  0  0  0
  7 12  1  0  0  0  0
M  END
> <FRED Chemgauss4 score>
-3.832067

$$$$
C96034659	P151250496
  -OEChem-05122015083D

 17 17  0     1  0  0  0  0  0999 V2000
   54.8798  155.0373   -5.4761 C   0  0  0  0  0  0  0  0  0  0  0  0
   55.2407  155.7154   -4.1380 C   0  0  0  0  0  0  0  0  0  0  0  0
   53.5581  155.8413   -5.6090 C   0  0  2  0  0  0  0  0  0  0  0  0
   53.6355  157.1088   -6.4446 C   0  0  0  0  0  0  0  0  0  0  0  0
   52.3583  157.7464   -6.4949 N   0  0  0  0  0  0  0  0  0  0  0  0
   52.8789  154.9232   -3.1884 O   0  0  0  0  0  0  0  0  0  0  0  0
   53.3086  157.4175   -3.4475 O   0  0  0  0  0  0  0  0  0  0  0  0
   53.5286  156.0417   -3.8390 S   0  0  0  0  0  0  0  0  0  0  0  0
   55.6106  155.2400   -6.2735 H   0  0  0  0  0  0  0  0  0  0  0  0
   54.7530  153.9488   -5.4198 H   0  0  0  0  0  0  0  0  0  0  0  0
   55.6733  155.0442   -3.3868 H   0  0  0  0  0  0  0  0  0  0  0  0
   55.8593  156.6145   -4.2211 H   0  0  0  0  0  0  0  0  0  0  0  0
   52.7172  155.2187   -5.9329 H   0  0  0  0  0  0  0  0  0  0  0  0
   53.9406  156.8548   -7.4553 H   0  0  0  0  0  0  0  0  0  0  0  0
   54.3516  157.7938   -6.0012 H   0  0  0  0  0  0  0  0  0  0  0  0
   51.5183  157.1830   -6.5375 H   0  0  0  0  0  0  0  0  0  0  0  0
   52.3008  158.7378   -6.6921 H   0  0  0  0  0  0  0  0  0  0  0  0
  1  2  1  0  0  0  0
  1  3  1  0  0  0  0
  2  8  1  0  0  0  0
  3  4  1  0  0  0  0
  3  8  1  0  0  0  0
  4  5  1  0  0  0  0
  6  8  2  0  0  0  0
  7  8  2  0  0  0  0
  1  9  1  0  0  0  0
  1 10  1  0  0  0  0
  2 11  1  0  0  0  0
  2 12  1  0  0  0  0
  3 13  1  0  0  0  0
  4 14  1  0  0  0  0
  4 15  1  0  0  0  0
  5 16  1  0  0  0  0
  5 17  1  0  0  0  0
M  END
> <FRED Chemgauss4 score>
-3.818927

$$$$
C71024810	P109615219
  -OEChem-05122015083D

 25 25  0     1  0  0  0  0  0999 V2000
   55.0770  156.2339   -3.4942 C   0  0  0  0  0  0  0  0  0  0  0  0
   56.0796  155.6658   -4.1750 C   0  0  0  0  0  0  0  0  0  0  0  0
   53.6898  155.8669   -3.8577 C   0  0  0  0  0  0  0  0  0  0  0  0
   54.7303  154.4375   -5.5107 C   0  0  0  0  0  0  0  0  0  0  0  0
   56.5131  151.9696   -6.5024 C   0  0  0  0  0  0  0  0  0  0  0  0
   55.4651  152.4608   -8.7164 C   0  0  0  0  0  0  0  0  0  0  0  0
   54.4686  153.4579   -6.6106 C   0  0  2  0  0  0  0  0  0  0  0  0
   55.7598  153.0236   -7.3215 C   0  0  0  0  0  0  0  0  0  0  0  0
   55.9472  154.7584   -5.1956 N   0  0  0  0  0  0  0  0  0  0  0  0
   53.6093  154.9503   -4.8892 N   0  0  0  0  0  0  0  0  0  0  0  0
   53.5740  154.1848   -7.4718 N   0  0  0  0  0  0  0  0  0  0  0  0
   52.7287  156.3541   -3.2725 O   0  0  0  0  0  0  0  0  0  0  0  0
   55.2446  156.9455   -2.6960 H   0  0  0  0  0  0  0  0  0  0  0  0
   57.1031  155.9238   -3.9221 H   0  0  0  0  0  0  0  0  0  0  0  0
   55.9024  151.0744   -6.3475 H   0  0  0  0  0  0  0  0  0  0  0  0
   56.7753  152.3612   -5.5135 H   0  0  0  0  0  0  0  0  0  0  0  0
   57.4396  151.6667   -7.0022 H   0  0  0  0  0  0  0  0  0  0  0  0
   54.8060  151.5876   -8.6603 H   0  0  0  0  0  0  0  0  0  0  0  0
   54.9844  153.2095   -9.3543 H   0  0  0  0  0  0  0  0  0  0  0  0
   56.3910  152.1538   -9.2146 H   0  0  0  0  0  0  0  0  0  0  0  0
   53.9206  152.6019   -6.2039 H   0  0  0  0  0  0  0  0  0  0  0  0
   56.4212  153.8922   -7.4420 H   0  0  0  0  0  0  0  0  0  0  0  0
   52.6926  154.6431   -5.2011 H   0  0  0  0  0  0  0  0  0  0  0  0
   52.9373  154.8518   -7.0668 H   0  0  0  0  0  0  0  0  0  0  0  0
   53.4519  153.8778   -8.4233 H   0  0  0  0  0  0  0  0  0  0  0  0
  1  2  2  0  0  0  0
  1  3  1  0  0  0  0
  2  9  1  0  0  0  0
  3 10  1  0  0  0  0
  3 12  2  0  0  0  0
  4  7  1  0  0  0  0
  4  9  2  0  0  0  0
  4 10  1  0  0  0  0
  5  8  1  0  0  0  0
  6  8  1  0  0  0  0
  7  8  1  0  0  0  0
  7 11  1  0  0  0  0
  1 13  1  0  0  0  0
  2 14  1  0  0  0  0
  5 15  1  0  0  0  0
  5 16  1  0  0  0  0
  5 17  1  0  0  0  0
  6 18  1  0  0  0  0
  6 19  1  0  0  0  0
  6 20  1  0  0  0  0
  7 21  1  0  0  0  0
  8 22  1  0  0  0  0
 10 23  1  0  0  0  0
 11 24  1  0  0  0  0
 11 25  1  0  0  0  0
M  END
> <FRED Chemgauss4 score>
-3.792514

$$$$
C12397092	P150528836
  -OEChem-05122015083D

 13 13  0     1  0  0  0  0  0999 V2000
   55.5986  156.5247   -3.7909 C   0  0  0  0  0  0  0  0  0  0  0  0
   53.5579  155.7542   -4.3312 C   0  0  0  0  0  0  0  0  0  0  0  0
   54.2271  156.5110   -3.2270 C   0  0  2  0  0  0  0  0  0  0  0  0
   55.6865  155.9382   -4.9383 N   0  0  0  0  0  0  0  0  0  0  0  0
   54.3905  155.4486   -5.2845 N   0  0  0  0  0  0  0  0  0  0  0  0
   52.2289  155.4501   -4.2601 N   0  0  0  0  0  0  0  0  0  0  0  0
   53.7277  157.8707   -3.1958 N   0  0  0  0  0  0  0  0  0  0  0  0
   56.4424  156.9890   -3.2624 H   0  0  0  0  0  0  0  0  0  0  0  0
   54.1801  155.9963   -2.2661 H   0  0  0  0  0  0  0  0  0  0  0  0
   51.7157  155.7429   -3.4580 H   0  0  0  0  0  0  0  0  0  0  0  0
   51.8148  154.9452   -5.0125 H   0  0  0  0  0  0  0  0  0  0  0  0
   54.3423  158.6016   -2.8909 H   0  0  0  0  0  0  0  0  0  0  0  0
   52.7402  158.0219   -3.2798 H   0  0  0  0  0  0  0  0  0  0  0  0
  1  3  1  0  0  0  0
  1  4  2  0  0  0  0
  2  3  1  0  0  0  0
  2  5  2  0  0  0  0
  2  6  1  0  0  0  0
  3  7  1  0  0  0  0
  4  5  1  0  0  0  0
  1  8  1  0  0  0  0
  3  9  1  0  0  0  0
  6 10  1  0  0  0  0
  6 11  1  0  0  0  0
  7 12  1  0  0  0  0
  7 13  1  0  0  0  0
M  END
> <FRED Chemgauss4 score>
-3.758485

$$$$
C97761317	P155115888
  -OEChem-05122015083D

 42 44  0     1  0  0  0  0  0999 V2000
   56.7889  153.0157   -7.7470 C   0  0  0  0  0  0  0  0  0  0  0  0
   57.7463  154.0229   -7.8393 C   0  0  0  0  0  0  0  0  0  0  0  0
   53.1161  155.8309   -5.0342 C   0  0  0  0  0  0  0  0  0  0  0  0
   55.6250  153.2645   -7.0199 C   0  0  0  0  0  0  0  0  0  0  0  0
   57.4839  155.2249   -7.2135 C   0  0  0  0  0  0  0  0  0  0  0  0
   53.9394  156.9209   -4.8127 C   0  0  0  0  0  0  0  0  0  0  0  0
   56.2912  155.3788   -6.5129 C   0  0  0  0  0  0  0  0  0  0  0  0
   52.2827  155.4319   -4.0087 C   0  0  0  0  0  0  0  0  0  0  0  0
   53.8745  157.5399   -3.5806 C   0  0  0  0  0  0  0  0  0  0  0  0
   58.3380  156.4440   -7.1155 C   0  0  0  0  0  0  0  0  0  0  0  0
   57.3025  157.4912   -6.6743 C   0  0  0  0  0  0  0  0  0  0  0  0
   56.2381  156.7342   -5.8518 C   0  0  1  0  0  0  0  0  0  0  0  0
   51.3767  154.2634   -4.1959 C   0  0  0  0  0  0  0  0  0  0  0  0
   54.7442  159.0523   -1.7798 C   0  0  0  0  0  0  0  0  0  0  0  0
   54.7324  158.7195   -3.2696 C   0  0  0  0  0  0  0  0  0  0  0  0
   54.8741  157.4012   -5.9061 C   0  0  1  0  0  0  0  0  0  0  0  0
   55.3489  154.4290   -6.3853 N   0  0  0  0  0  0  0  0  0  0  0  0
   52.2400  156.0564   -2.8128 N   0  0  0  0  0  0  0  0  0  0  0  0
   53.0489  157.1279   -2.5953 N   0  0  0  0  0  0  0  0  0  0  0  0
   53.3834  158.3159   -7.4576 N   0  0  0  0  0  0  0  0  0  0  0  0
   54.2793  157.2276   -7.2146 N   0  0  0  0  0  0  0  0  0  0  0  0
   56.9479  152.0548   -8.2243 H   0  0  0  0  0  0  0  0  0  0  0  0
   58.6690  153.8615   -8.3855 H   0  0  0  0  0  0  0  0  0  0  0  0
   53.1262  155.3068   -5.9847 H   0  0  0  0  0  0  0  0  0  0  0  0
   54.8618  152.4985   -6.9249 H   0  0  0  0  0  0  0  0  0  0  0  0
   59.1111  156.3055   -6.3528 H   0  0  0  0  0  0  0  0  0  0  0  0
   58.7967  156.7148   -8.0706 H   0  0  0  0  0  0  0  0  0  0  0  0
   57.7611  158.3080   -6.1071 H   0  0  0  0  0  0  0  0  0  0  0  0
   56.8449  157.9379   -7.5686 H   0  0  0  0  0  0  0  0  0  0  0  0
   56.5713  156.6300   -4.8121 H   0  0  0  0  0  0  0  0  0  0  0  0
   51.8787  153.3367   -3.8904 H   0  0  0  0  0  0  0  0  0  0  0  0
   50.4578  154.3716   -3.6043 H   0  0  0  0  0  0  0  0  0  0  0  0
   51.0678  154.1614   -5.2448 H   0  0  0  0  0  0  0  0  0  0  0  0
   53.7295  159.2351   -1.4101 H   0  0  0  0  0  0  0  0  0  0  0  0
   55.3417  159.9490   -1.5878 H   0  0  0  0  0  0  0  0  0  0  0  0
   55.1709  158.2290   -1.1969 H   0  0  0  0  0  0  0  0  0  0  0  0
   55.7663  158.5421   -3.6068 H   0  0  0  0  0  0  0  0  0  0  0  0
   54.3900  159.6025   -3.8329 H   0  0  0  0  0  0  0  0  0  0  0  0
   55.0185  158.4857   -5.7972 H   0  0  0  0  0  0  0  0  0  0  0  0
   52.4359  157.9555   -7.5675 H   0  0  0  0  0  0  0  0  0  0  0  0
   53.3586  158.9176   -6.6353 H   0  0  0  0  0  0  0  0  0  0  0  0
   55.0069  157.2335   -7.9327 H   0  0  0  0  0  0  0  0  0  0  0  0
  1  2  1  0  0  0  0
  1  4  2  0  0  0  0
  2  5  2  0  0  0  0
  3  6  2  0  0  0  0
  3  8  1  0  0  0  0
  4 17  1  0  0  0  0
  5  7  1  0  0  0  0
  5 10  1  0  0  0  0
  6  9  1  0  0  0  0
  6 16  1  0  0  0  0
  7 12  1  0  0  0  0
  7 17  2  0  0  0  0
  8 13  1  0  0  0  0
  8 18  2  0  0  0  0
  9 15  1  0  0  0  0
  9 19  2  0  0  0  0
 10 11  1  0  0  0  0
 11 12  1  0  0  0  0
 12 16  1  0  0  0  0
 14 15  1  0  0  0  0
 16 21  1  0  0  0  0
 18 19  1  0  0  0  0
 20 21  1  0  0  0  0
  1 22  1  0  0  0  0
  2 23  1  0  0  0  0
  3 24  1  0  0  0  0
  4 25  1  0  0  0  0
 10 26  1  0  0  0  0
 10 27  1  0  0  0  0
 11 28  1  0  0  0  0
 11 29  1  0  0  0  0
 12 30  1  0  0  0  0
 13 31  1  0  0  0  0
 13 32  1  0  0  0  0
 13 33  1  0  0  0  0
 14 34  1  0  0  0  0
 14 35  1  0  0  0  0
 14 36  1  0  0  0  0
 15 37  1  0  0  0  0
 15 38  1  0  0  0  0
 16 39  1  0  0  0  0
 20 40  1  0  0  0  0
 20 41  1  0  0  0  0
 21 42  1  0  0  0  0
M  END
> <FRED Chemgauss4 score>
-3.746948

$$$$
C95891368	P150946078
  -OEChem-05122015083D

 21 22  0     1  0  0  0  0  0999 V2000
   54.6215  158.4897   -2.9946 C   0  0  0  0  0  0  0  0  0  0  0  0
   56.1462  158.6014   -4.8690 C   0  0  0  0  0  0  0  0  0  0  0  0
   53.7988  158.3303   -5.1333 C   0  0  0  0  0  0  0  0  0  0  0  0
   58.1350  158.8800   -3.7683 C   0  0  0  0  0  0  0  0  0  0  0  0
   55.9857  158.0776   -3.5046 C   0  0  1  0  0  0  0  0  0  0  0  0
   57.5564  157.8318   -1.6503 C   0  0  0  0  0  0  0  0  0  0  0  0
   53.5645  158.2460   -3.8608 N   0  0  0  0  0  0  0  0  0  0  0  0
   52.8345  158.1837   -6.0257 N   0  5  0  0  0  0  0  0  0  0  0  0
   55.0960  158.6204   -5.6695 N   0  0  0  0  0  0  0  0  0  0  0  0
   57.0897  158.6740   -2.7431 N   0  0  1  0  0  0  0  0  0  0  0  0
   57.4001  158.9928   -5.0402 N   0  3  0  0  0  0  0  0  0  0  0  0
   54.4574  158.9348   -1.8613 O   0  0  0  0  0  0  0  0  0  0  0  0
   58.6870  159.8058   -3.5847 H   0  0  0  0  0  0  0  0  0  0  0  0
   58.8279  158.0360   -3.8576 H   0  0  0  0  0  0  0  0  0  0  0  0
   56.0423  156.9811   -3.5260 H   0  0  0  0  0  0  0  0  0  0  0  0
   56.7614  157.7000   -0.9118 H   0  0  0  0  0  0  0  0  0  0  0  0
   58.4190  158.2917   -1.1606 H   0  0  0  0  0  0  0  0  0  0  0  0
   57.8511  156.8496   -2.0294 H   0  0  0  0  0  0  0  0  0  0  0  0
   53.2113  158.3914   -6.9548 H   0  0  0  0  0  0  0  0  0  0  0  0
   55.2332  158.8728   -6.6429 H   0  0  0  0  0  0  0  0  0  0  0  0
   57.7141  159.3730   -5.9258 H   0  0  0  0  0  0  0  0  0  0  0  0
  1  5  1  0  0  0  0
  1  7  1  0  0  0  0
  1 12  2  0  0  0  0
  2  5  1  0  0  0  0
  2  9  1  0  0  0  0
  2 11  2  0  0  0  0
  3  7  2  0  0  0  0
  3  8  1  0  0  0  0
  3  9  1  0  0  0  0
  4 10  1  0  0  0  0
  4 11  1  0  0  0  0
  5 10  1  0  0  0  0
  6 10  1  0  0  0  0
  4 13  1  0  0  0  0
  4 14  1  0  0  0  0
  5 15  1  0  0  0  0
  6 16  1  0  0  0  0
  6 17  1  0  0  0  0
  6 18  1  0  0  0  0
  8 19  1  0  0  0  0
  9 20  1  0  0  0  0
 11 21  1  0  0  0  0
M  CHG  2   8  -1  11   1
M  END
> <FRED Chemgauss4 score>
-3.738263

$$$$
C40449126	P61405934
  -OEChem-05122015083D

 20 21  0     1  0  0  0  0  0999 V2000
   53.4463  156.4399   -3.3987 C   0  0  0  0  0  0  0  0  0  0  0  0
   54.0142  155.9474   -4.5872 C   0  0  0  0  0  0  0  0  0  0  0  0
   54.9648  155.0672   -4.1367 C   0  0  0  0  0  0  0  0  0  0  0  0
   55.8903  154.2387   -4.9341 C   0  0  0  0  0  0  0  0  0  0  0  0
   55.9014  154.7639   -6.3859 C   0  0  0  0  0  0  0  0  0  0  0  0
   54.4844  155.1211   -6.8924 C   0  0  0  0  0  0  0  0  0  0  0  0
   53.8141  156.2287   -6.0339 C   0  0  1  0  0  0  0  0  0  0  0  0
   53.9921  155.8870   -2.3069 N   0  0  0  0  0  0  0  0  0  0  0  0
   52.3891  156.2992   -6.3416 N   0  0  0  0  0  0  0  0  0  0  0  0
   54.9635  155.0078   -2.7864 O   0  0  0  0  0  0  0  0  0  0  0  0
   52.6640  157.1743   -3.2739 H   0  0  0  0  0  0  0  0  0  0  0  0
   56.9028  154.2624   -4.5186 H   0  0  0  0  0  0  0  0  0  0  0  0
   55.5451  153.1988   -4.9227 H   0  0  0  0  0  0  0  0  0  0  0  0
   56.5316  155.6612   -6.4442 H   0  0  0  0  0  0  0  0  0  0  0  0
   56.3552  154.0122   -7.0415 H   0  0  0  0  0  0  0  0  0  0  0  0
   54.5388  155.4492   -7.9376 H   0  0  0  0  0  0  0  0  0  0  0  0
   53.8749  154.2068   -6.8784 H   0  0  0  0  0  0  0  0  0  0  0  0
   54.2757  157.1894   -6.2700 H   0  0  0  0  0  0  0  0  0  0  0  0
   52.1040  156.1418   -7.2841 H   0  0  0  0  0  0  0  0  0  0  0  0
   51.7806  156.6966   -5.6588 H   0  0  0  0  0  0  0  0  0  0  0  0
  1  2  1  0  0  0  0
  1  8  2  0  0  0  0
  2  3  2  0  0  0  0
  2  7  1  0  0  0  0
  3  4  1  0  0  0  0
  3 10  1  0  0  0  0
  4  5  1  0  0  0  0
  5  6  1  0  0  0  0
  6  7  1  0  0  0  0
  7  9  1  0  0  0  0
  8 10  1  0  0  0  0
  1 11  1  0  0  0  0
  4 12  1  0  0  0  0
  4 13  1  0  0  0  0
  5 14  1  0  0  0  0
  5 15  1  0  0  0  0
  6 16  1  0  0  0  0
  6 17  1  0  0  0  0
  7 18  1  0  0  0  0
  9 19  1  0  0  0  0
  9 20  1  0  0  0  0
M  END
> <FRED Chemgauss4 score>
-3.737339

$$$$
C82707466	P129264205
  -OEChem-05122015083D

 21 21  0     0  0  0  0  0  0999 V2000
   55.6618  158.7305   -2.0846 C   0  0  0  0  0  0  0  0  0  0  0  0
   56.5848  158.5416   -3.0919 C   0  0  0  0  0  0  0  0  0  0  0  0
   54.7349  156.9990   -3.0607 C   0  0  0  0  0  0  0  0  0  0  0  0
   55.7108  159.7807   -1.0469 C   0  0  0  0  0  0  0  0  0  0  0  0
   57.8180  159.2911   -3.4051 C   0  0  0  0  0  0  0  0  0  0  0  0
   53.7722  155.8883   -3.3667 C   0  0  0  0  0  0  0  0  0  0  0  0
   54.6002  157.8471   -2.0654 N   0  0  0  0  0  0  0  0  0  0  0  0
   52.0706  155.0828   -4.7530 N   0  0  0  0  0  0  0  0  0  0  0  0
   52.9347  156.1947   -4.5181 N   0  0  0  0  0  0  0  0  0  0  0  0
   56.1154  157.2053   -4.0591 S   0  0  0  0  0  0  0  0  0  0  0  0
   55.1860  160.6908   -1.3793 H   0  0  0  0  0  0  0  0  0  0  0  0
   55.2455  159.4502   -0.1031 H   0  0  0  0  0  0  0  0  0  0  0  0
   56.7467  160.0632   -0.7944 H   0  0  0  0  0  0  0  0  0  0  0  0
   58.6866  158.8632   -2.8789 H   0  0  0  0  0  0  0  0  0  0  0  0
   58.0428  159.2839   -4.4851 H   0  0  0  0  0  0  0  0  0  0  0  0
   57.7404  160.3532   -3.1167 H   0  0  0  0  0  0  0  0  0  0  0  0
   54.3106  154.9583   -3.5793 H   0  0  0  0  0  0  0  0  0  0  0  0
   53.1121  155.6944   -2.5147 H   0  0  0  0  0  0  0  0  0  0  0  0
   52.2089  154.3845   -4.0229 H   0  0  0  0  0  0  0  0  0  0  0  0
   51.1041  155.3931   -4.6618 H   0  0  0  0  0  0  0  0  0  0  0  0
   53.5227  156.3408   -5.3379 H   0  0  0  0  0  0  0  0  0  0  0  0
  1  2  2  0  0  0  0
  1  4  1  0  0  0  0
  1  7  1  0  0  0  0
  2  5  1  0  0  0  0
  2 10  1  0  0  0  0
  3  6  1  0  0  0  0
  3  7  2  0  0  0  0
  3 10  1  0  0  0  0
  6  9  1  0  0  0  0
  8  9  1  0  0  0  0
  4 11  1  0  0  0  0
  4 12  1  0  0  0  0
  4 13  1  0  0  0  0
  5 14  1  0  0  0  0
  5 15  1  0  0  0  0
  5 16  1  0  0  0  0
  6 17  1  0  0  0  0
  6 18  1  0  0  0  0
  8 19  1  0  0  0  0
  8 20  1  0  0  0  0
  9 21  1  0  0  0  0
M  END
> <FRED Chemgauss4 score>
-3.722760

$$$$
C38007993	P120930287
  -OEChem-05122015083D

 26 27  0     1  0  0  0  0  0999 V2000
   55.8771  161.8147   -4.8351 C   0  0  0  0  0  0  0  0  0  0  0  0
   54.3936  160.2310   -4.8210 C   0  0  0  0  0  0  0  0  0  0  0  0
   54.1278  155.1664   -5.3760 C   0  0  0  0  0  0  0  0  0  0  0  0
   53.8627  156.1378   -3.4191 C   0  0  0  0  0  0  0  0  0  0  0  0
   54.0344  156.6484   -5.7139 C   0  0  0  0  0  0  0  0  0  0  0  0
   54.0525  157.2991   -4.3468 C   0  0  1  0  0  0  0  0  0  0  0  0
   53.7298  162.3505   -6.0073 C   0  0  0  0  0  0  0  0  0  0  0  0
   53.1125  159.4926   -5.0748 C   0  0  0  0  0  0  0  0  0  0  0  0
   56.3915  160.7978   -4.1811 N   0  0  0  0  0  0  0  0  0  0  0  0
   55.4477  159.7902   -4.1721 N   0  0  0  0  0  0  0  0  0  0  0  0
   54.0096  154.9501   -4.0972 N   0  0  0  0  0  0  0  0  0  0  0  0
   54.6202  161.5015   -5.2559 N   0  0  0  0  0  0  0  0  0  0  0  0
   52.9570  158.2829   -4.2200 N   0  3  0  0  0  0  0  0  0  0  0  0
   54.2830  154.3438   -6.2985 O   0  5  0  0  0  0  0  0  0  0  0  0
   53.6250  156.2512   -2.2232 O   0  0  0  0  0  0  0  0  0  0  0  0
   56.3536  162.7656   -5.0261 H   0  0  0  0  0  0  0  0  0  0  0  0
   54.9190  156.9364   -6.2927 H   0  0  0  0  0  0  0  0  0  0  0  0
   53.1384  156.8719   -6.3009 H   0  0  0  0  0  0  0  0  0  0  0  0
   55.0007  157.8254   -4.1478 H   0  0  0  0  0  0  0  0  0  0  0  0
   53.9122  162.1735   -7.0705 H   0  0  0  0  0  0  0  0  0  0  0  0
   52.6943  162.1090   -5.7516 H   0  0  0  0  0  0  0  0  0  0  0  0
   53.9270  163.3957   -5.7533 H   0  0  0  0  0  0  0  0  0  0  0  0
   52.2430  160.1295   -4.8795 H   0  0  0  0  0  0  0  0  0  0  0  0
   53.0508  159.1532   -6.1144 H   0  0  0  0  0  0  0  0  0  0  0  0
   52.0598  157.8282   -4.4471 H   0  0  0  0  0  0  0  0  0  0  0  0
   52.8744  158.5791   -3.2357 H   0  0  0  0  0  0  0  0  0  0  0  0
  1  9  2  0  0  0  0
  1 12  1  0  0  0  0
  2  8  1  0  0  0  0
  2 10  2  0  0  0  0
  2 12  1  0  0  0  0
  3  5  1  0  0  0  0
  3 11  2  0  0  0  0
  3 14  1  0  0  0  0
  4  6  1  0  0  0  0
  4 11  1  0  0  0  0
  4 15  2  0  0  0  0
  5  6  1  0  0  0  0
  6 13  1  0  0  0  0
  7 12  1  0  0  0  0
  8 13  1  0  0  0  0
  9 10  1  0  0  0  0
  1 16  1  0  0  0  0
  5 17  1  0  0  0  0
  5 18  1  0  0  0  0
  6 19  1  0  0  0  0
  7 20  1  0  0  0  0
  7 21  1  0  0  0  0
  7 22  1  0  0  0  0
  8 23  1  0  0  0  0
  8 24  1  0  0  0  0
 13 25  1  0  0  0  0
 13 26  1  0  0  0  0
M  CHG  2  13   1  14  -1
M  END
> <FRED Chemgauss4 score>
-3.718867

$$$$
C50586414	P75655837
  -OEChem-05122015083D

 29 29  0     1  0  0  0  0  0999 V2000
   57.5158  159.0056   -2.2130 C   0  0  0  0  0  0  0  0  0  0  0  0
   56.3406  158.9303   -1.4415 C   0  0  0  0  0  0  0  0  0  0  0  0
   57.1319  158.5907   -3.4648 C   0  0  0  0  0  0  0  0  0  0  0  0
   56.1669  159.2577   -0.0146 C   0  0  0  0  0  0  0  0  0  0  0  0
   57.8918  158.4436   -4.7214 C   0  0  0  0  0  0  0  0  0  0  0  0
   54.2485  160.1757   -5.2138 C   0  0  0  0  0  0  0  0  0  0  0  0
   54.8917  157.7999   -4.4853 C   0  0  2  0  0  0  0  0  0  0  0  0
   53.7335  158.7912   -4.8036 C   0  0  2  0  0  0  0  0  0  0  0  0
   54.4015  156.3870   -4.1442 C   0  0  0  0  0  0  0  0  0  0  0  0
   55.2889  158.5015   -2.1445 N   0  0  0  0  0  0  0  0  0  0  0  0
   55.8019  158.3037   -3.3708 N   0  0  0  0  0  0  0  0  0  0  0  0
   52.8980  158.2958   -5.9029 N   0  0  0  0  0  0  0  0  0  0  0  0
   55.4389  155.5465   -3.9281 F   0  0  0  0  0  0  0  0  0  0  0  0
   53.6588  156.3858   -3.0129 F   0  0  0  0  0  0  0  0  0  0  0  0
   53.6490  155.8570   -5.1319 F   0  0  0  0  0  0  0  0  0  0  0  0
   59.0471  159.5002   -1.6884 Cl  0  0  0  0  0  0  0  0  0  0  0  0
   55.8933  160.3175    0.1213 H   0  0  0  0  0  0  0  0  0  0  0  0
   55.3790  158.6463    0.4591 H   0  0  0  0  0  0  0  0  0  0  0  0
   57.0858  159.0729    0.5690 H   0  0  0  0  0  0  0  0  0  0  0  0
   58.3247  157.4334   -4.8081 H   0  0  0  0  0  0  0  0  0  0  0  0
   57.2601  158.6147   -5.6097 H   0  0  0  0  0  0  0  0  0  0  0  0
   58.7196  159.1700   -4.7920 H   0  0  0  0  0  0  0  0  0  0  0  0
   54.8982  160.1089   -6.0944 H   0  0  0  0  0  0  0  0  0  0  0  0
   54.8227  160.6447   -4.4068 H   0  0  0  0  0  0  0  0  0  0  0  0
   53.4258  160.8473   -5.4787 H   0  0  0  0  0  0  0  0  0  0  0  0
   55.4993  157.7046   -5.3969 H   0  0  0  0  0  0  0  0  0  0  0  0
   53.0913  158.9099   -3.9226 H   0  0  0  0  0  0  0  0  0  0  0  0
   52.3782  158.9625   -6.4254 H   0  0  0  0  0  0  0  0  0  0  0  0
   52.7272  157.3177   -5.9494 H   0  0  0  0  0  0  0  0  0  0  0  0
  1  2  1  0  0  0  0
  1  3  2  0  0  0  0
  1 16  1  0  0  0  0
  2  4  1  0  0  0  0
  2 10  2  0  0  0  0
  3  5  1  0  0  0  0
  3 11  1  0  0  0  0
  6  8  1  0  0  0  0
  7  8  1  0  0  0  0
  7  9  1  0  0  0  0
  7 11  1  0  0  0  0
  8 12  1  0  0  0  0
  9 13  1  0  0  0  0
  9 14  1  0  0  0  0
  9 15  1  0  0  0  0
 10 11  1  0  0  0  0
  4 17  1  0  0  0  0
  4 18  1  0  0  0  0
  4 19  1  0  0  0  0
  5 20  1  0  0  0  0
  5 21  1  0  0  0  0
  5 22  1  0  0  0  0
  6 23  1  0  0  0  0
  6 24  1  0  0  0  0
  6 25  1  0  0  0  0
  7 26  1  0  0  0  0
  8 27  1  0  0  0  0
 12 28  1  0  0  0  0
 12 29  1  0  0  0  0
M  END
> <FRED Chemgauss4 score>
-3.712502

$$$$
C49587762	P74060572
  -OEChem-05122015083D

 21 22  0     1  0  0  0  0  0999 V2000
   54.9326  156.3195   -6.3047 C   0  0  0  0  0  0  0  0  0  0  0  0
   54.7778  156.1056   -2.9334 C   0  0  0  0  0  0  0  0  0  0  0  0
   55.1280  154.8284   -6.0711 C   0  0  1  0  0  0  0  0  0  0  0  0
   54.4560  154.6360   -4.7287 C   0  0  2  0  0  0  0  0  0  0  0  0
   53.3302  155.6503   -4.7298 C   0  0  1  0  0  0  0  0  0  0  0  0
   53.3092  156.1155   -3.2937 C   0  0  2  0  0  0  0  0  0  0  0  0
   54.4543  154.0680   -7.1223 N   0  0  0  0  0  0  0  0  0  0  0  0
   53.7283  156.7046   -5.6238 O   0  0  0  0  0  0  0  0  0  0  0  0
   55.3576  155.0166   -3.6667 O   0  0  0  0  0  0  0  0  0  0  0  0
   52.7299  157.3895   -3.1235 O   0  0  0  0  0  0  0  0  0  0  0  0
   55.7565  156.8922   -5.8639 H   0  0  0  0  0  0  0  0  0  0  0  0
   54.8624  156.5992   -7.3610 H   0  0  0  0  0  0  0  0  0  0  0  0
   55.2841  157.0342   -3.2200 H   0  0  0  0  0  0  0  0  0  0  0  0
   54.9421  155.9540   -1.8624 H   0  0  0  0  0  0  0  0  0  0  0  0
   56.1917  154.5715   -6.0660 H   0  0  0  0  0  0  0  0  0  0  0  0
   54.1262  153.6124   -4.5244 H   0  0  0  0  0  0  0  0  0  0  0  0
   52.3701  155.2605   -5.0797 H   0  0  0  0  0  0  0  0  0  0  0  0
   52.7747  155.3883   -2.6707 H   0  0  0  0  0  0  0  0  0  0  0  0
   54.1697  153.1359   -6.9159 H   0  0  0  0  0  0  0  0  0  0  0  0
   54.4866  154.4255   -8.0517 H   0  0  0  0  0  0  0  0  0  0  0  0
   52.8320  157.6333   -2.1857 H   0  0  0  0  0  0  0  0  0  0  0  0
  1  3  1  0  0  0  0
  1  8  1  0  0  0  0
  2  6  1  0  0  0  0
  2  9  1  0  0  0  0
  3  4  1  0  0  0  0
  3  7  1  0  0  0  0
  4  5  1  0  0  0  0
  4  9  1  0  0  0  0
  5  6  1  0  0  0  0
  5  8  1  0  0  0  0
  6 10  1  0  0  0  0
  1 11  1  0  0  0  0
  1 12  1  0  0  0  0
  2 13  1  0  0  0  0
  2 14  1  0  0  0  0
  3 15  1  0  0  0  0
  4 16  1  0  0  0  0
  5 17  1  0  0  0  0
  6 18  1  0  0  0  0
  7 19  1  0  0  0  0
  7 20  1  0  0  0  0
 10 21  1  0  0  0  0
M  END
> <FRED Chemgauss4 score>
-3.711398

$$$$
C36264814	P53889379
  -OEChem-05122015083D

 19 19  0     1  0  0  0  0  0999 V2000
   54.0391  158.2172   -6.4370 C   0  0  0  0  0  0  0  0  0  0  0  0
   53.1452  159.2517   -5.8077 C   0  0  2  0  0  0  0  0  0  0  0  0
   53.7457  158.1587   -4.9645 C   0  0  1  0  0  0  0  0  0  0  0  0
   55.0539  155.4188   -4.3323 C   0  0  0  0  0  0  0  0  0  0  0  0
   51.7125  159.2626   -6.1162 N   0  0  0  0  0  0  0  0  0  0  0  0
   52.9425  157.0711   -4.3794 N   0  0  0  0  0  0  0  0  0  0  0  0
   52.8177  154.8190   -3.1116 O   0  0  0  0  0  0  0  0  0  0  0  0
   54.2454  156.6867   -2.2006 O   0  0  0  0  0  0  0  0  0  0  0  0
   53.6911  155.9565   -3.3244 S   0  0  0  0  0  0  0  0  0  0  0  0
   53.5921  157.4679   -7.0795 H   0  0  0  0  0  0  0  0  0  0  0  0
   55.0319  158.5270   -6.7410 H   0  0  0  0  0  0  0  0  0  0  0  0
   53.5690  160.2434   -5.6830 H   0  0  0  0  0  0  0  0  0  0  0  0
   54.5493  158.4433   -4.2938 H   0  0  0  0  0  0  0  0  0  0  0  0
   55.6317  154.6855   -3.7675 H   0  0  0  0  0  0  0  0  0  0  0  0
   54.6530  154.9707   -5.2428 H   0  0  0  0  0  0  0  0  0  0  0  0
   55.6686  156.2877   -4.5720 H   0  0  0  0  0  0  0  0  0  0  0  0
   51.4431  159.3975   -7.0640 H   0  0  0  0  0  0  0  0  0  0  0  0
   51.0752  159.3399   -5.3566 H   0  0  0  0  0  0  0  0  0  0  0  0
   52.2191  156.7002   -5.0096 H   0  0  0  0  0  0  0  0  0  0  0  0
  1  2  1  0  0  0  0
  1  3  1  0  0  0  0
  2  3  1  0  0  0  0
  2  5  1  0  0  0  0
  3  6  1  0  0  0  0
  4  9  1  0  0  0  0
  6  9  1  0  0  0  0
  7  9  2  0  0  0  0
  8  9  2  0  0  0  0
  1 10  1  0  0  0  0
  1 11  1  0  0  0  0
  2 12  1  0  0  0  0
  3 13  1  0  0  0  0
  4 14  1  0  0  0  0
  4 15  1  0  0  0  0
  4 16  1  0  0  0  0
  5 17  1  0  0  0  0
  5 18  1  0  0  0  0
  6 19  1  0  0  0  0
M  END
> <FRED Chemgauss4 score>
-3.694852

$$$$
C79008569	P123355883
  -OEChem-05122015083D

 42 43  0     1  0  0  0  0  0999 V2000
   56.7540  159.0721   -0.7303 C   0  0  0  0  0  0  0  0  0  0  0  0
   55.6005  158.5050   -1.2721 C   0  0  0  0  0  0  0  0  0  0  0  0
   57.8722  159.2837   -1.5370 C   0  0  0  0  0  0  0  0  0  0  0  0
   56.6834  158.3610   -3.4270 C   0  0  0  0  0  0  0  0  0  0  0  0
   58.1374  158.1462   -7.0277 C   0  0  0  0  0  0  0  0  0  0  0  0
   55.5652  158.1494   -2.6204 C   0  0  0  0  0  0  0  0  0  0  0  0
   57.8369  158.9282   -2.8853 C   0  0  0  0  0  0  0  0  0  0  0  0
   59.4498  158.6314   -6.7587 C   0  0  0  0  0  0  0  0  0  0  0  0
   58.1554  157.0080   -7.8034 C   0  0  0  0  0  0  0  0  0  0  0  0
   60.4210  157.8452   -7.3389 C   0  0  0  0  0  0  0  0  0  0  0  0
   54.3622  157.5588   -3.1850 C   0  0  0  0  0  0  0  0  0  0  0  0
   57.0100  156.2104   -8.2931 C   0  0  0  0  0  0  0  0  0  0  0  0
   61.8922  158.0050   -7.2994 C   0  0  0  0  0  0  0  0  0  0  0  0
   59.7943  161.1374   -6.7773 C   0  0  0  0  0  0  0  0  0  0  0  0
   59.0326  159.1543   -3.7479 C   0  0  0  0  0  0  0  0  0  0  0  0
   59.7303  159.8674   -5.9314 C   0  0  1  0  0  0  0  0  0  0  0  0
   53.6168  156.8418   -2.3627 N   0  0  0  0  0  0  0  0  0  0  0  0
   53.9969  157.7272   -4.5243 N   0  0  0  0  0  0  0  0  0  0  0  0
   58.7491  160.0269   -4.8589 N   0  0  0  0  0  0  0  0  0  0  0  0
   52.4871  156.3193   -3.0005 O   0  0  0  0  0  0  0  0  0  0  0  0
   59.7498  156.5286   -8.2040 S   0  0  0  0  0  0  0  0  0  0  0  0
   56.7819  159.3479    0.3198 H   0  0  0  0  0  0  0  0  0  0  0  0
   54.7347  158.3450   -0.6345 H   0  0  0  0  0  0  0  0  0  0  0  0
   58.7665  159.7267   -1.1065 H   0  0  0  0  0  0  0  0  0  0  0  0
   56.6579  158.0833   -4.4784 H   0  0  0  0  0  0  0  0  0  0  0  0
   57.2255  158.6091   -6.6711 H   0  0  0  0  0  0  0  0  0  0  0  0
   56.6653  156.5760   -9.2730 H   0  0  0  0  0  0  0  0  0  0  0  0
   57.2685  155.1445   -8.4022 H   0  0  0  0  0  0  0  0  0  0  0  0
   56.1552  156.2496   -7.5981 H   0  0  0  0  0  0  0  0  0  0  0  0
   62.3227  157.4697   -6.4393 H   0  0  0  0  0  0  0  0  0  0  0  0
   62.3708  157.6181   -8.2133 H   0  0  0  0  0  0  0  0  0  0  0  0
   62.1871  159.0639   -7.2216 H   0  0  0  0  0  0  0  0  0  0  0  0
   58.8503  161.3069   -7.3067 H   0  0  0  0  0  0  0  0  0  0  0  0
   59.9901  162.0105   -6.1448 H   0  0  0  0  0  0  0  0  0  0  0  0
   60.5965  161.0936   -7.5225 H   0  0  0  0  0  0  0  0  0  0  0  0
   59.8544  159.6059   -3.1748 H   0  0  0  0  0  0  0  0  0  0  0  0
   59.4150  158.2111   -4.1615 H   0  0  0  0  0  0  0  0  0  0  0  0
   60.6981  159.7511   -5.4282 H   0  0  0  0  0  0  0  0  0  0  0  0
   54.5466  158.2901   -5.1633 H   0  0  0  0  0  0  0  0  0  0  0  0
   53.1424  157.3237   -4.8934 H   0  0  0  0  0  0  0  0  0  0  0  0
   58.7608  161.0041   -4.5499 H   0  0  0  0  0  0  0  0  0  0  0  0
   52.0612  155.8329   -2.2745 H   0  0  0  0  0  0  0  0  0  0  0  0
  1  2  1  0  0  0  0
  1  3  2  0  0  0  0
  2  6  2  0  0  0  0
  3  7  1  0  0  0  0
  4  6  1  0  0  0  0
  4  7  2  0  0  0  0
  5  8  1  0  0  0  0
  5  9  2  0  0  0  0
  6 11  1  0  0  0  0
  7 15  1  0  0  0  0
  8 10  2  0  0  0  0
  8 16  1  0  0  0  0
  9 12  1  0  0  0  0
  9 21  1  0  0  0  0
 10 13  1  0  0  0  0
 10 21  1  0  0  0  0
 11 17  2  0  0  0  0
 11 18  1  0  0  0  0
 14 16  1  0  0  0  0
 15 19  1  0  0  0  0
 16 19  1  0  0  0  0
 17 20  1  0  0  0  0
  1 22  1  0  0  0  0
  2 23  1  0  0  0  0
  3 24  1  0  0  0  0
  4 25  1  0  0  0  0
  5 26  1  0  0  0  0
 12 27  1  0  0  0  0
 12 28  1  0  0  0  0
 12 29  1  0  0  0  0
 13 30  1  0  0  0  0
 13 31  1  0  0  0  0
 13 32  1  0  0  0  0
 14 33  1  0  0  0  0
 14 34  1  0  0  0  0
 14 35  1  0  0  0  0
 15 36  1  0  0  0  0
 15 37  1  0  0  0  0
 16 38  1  0  0  0  0
 18 39  1  0  0  0  0
 18 40  1  0  0  0  0
 19 41  1  0  0  0  0
 20 42  1  0  0  0  0
M  END
> <FRED Chemgauss4 score>
-3.689333

$$$$
C78953608	P123234585
  -OEChem-05122015083D

 36 37  0     0  0  0  0  0  0999 V2000
   56.0945  157.9143   -3.4775 C   0  0  0  0  0  0  0  0  0  0  0  0
   55.1529  160.0671   -4.0398 C   0  0  0  0  0  0  0  0  0  0  0  0
   57.2320  158.5438   -2.9723 C   0  0  0  0  0  0  0  0  0  0  0  0
   56.2904  160.6966   -3.5345 C   0  0  0  0  0  0  0  0  0  0  0  0
   60.1806  163.1507   -4.6510 C   0  0  0  0  0  0  0  0  0  0  0  0
   60.9512  163.2400   -5.8102 C   0  0  0  0  0  0  0  0  0  0  0  0
   59.7931  160.8065   -5.0891 C   0  0  0  0  0  0  0  0  0  0  0  0
   55.0549  158.6759   -4.0114 C   0  0  0  0  0  0  0  0  0  0  0  0
   57.3300  159.9350   -3.0008 C   0  0  0  0  0  0  0  0  0  0  0  0
   60.5637  160.8958   -6.2484 C   0  0  0  0  0  0  0  0  0  0  0  0
   59.6015  161.9339   -4.2904 C   0  0  0  0  0  0  0  0  0  0  0  0
   61.1428  162.1126   -6.6089 C   0  0  0  0  0  0  0  0  0  0  0  0
   53.8681  158.0206   -4.5380 C   0  0  0  0  0  0  0  0  0  0  0  0
   60.7407  159.6623   -7.0738 C   0  0  0  0  0  0  0  0  0  0  0  0
   58.5461  160.6077   -2.4593 C   0  0  0  0  0  0  0  0  0  0  0  0
   53.1799  157.2785   -3.6888 N   0  0  0  0  0  0  0  0  0  0  0  0
   53.4612  158.1548   -5.8691 N   0  0  0  0  0  0  0  0  0  0  0  0
   58.8349  161.8457   -3.1375 N   0  0  0  0  0  0  0  0  0  0  0  0
   52.0613  156.6940   -4.2913 O   0  0  0  0  0  0  0  0  0  0  0  0
   62.1978  162.2831   -8.1756 Br  0  0  0  0  0  0  0  0  0  0  0  0
   56.0279  156.8298   -3.4506 H   0  0  0  0  0  0  0  0  0  0  0  0
   54.3491  160.6706   -4.4534 H   0  0  0  0  0  0  0  0  0  0  0  0
   58.0370  157.9427   -2.5580 H   0  0  0  0  0  0  0  0  0  0  0  0
   56.3582  161.7811   -3.5603 H   0  0  0  0  0  0  0  0  0  0  0  0
   60.0392  164.0349   -4.0346 H   0  0  0  0  0  0  0  0  0  0  0  0
   61.3958  164.1966   -6.0731 H   0  0  0  0  0  0  0  0  0  0  0  0
   59.3401  159.8582   -4.8077 H   0  0  0  0  0  0  0  0  0  0  0  0
   59.9447  159.5908   -7.8233 H   0  0  0  0  0  0  0  0  0  0  0  0
   61.7084  159.6674   -7.5895 H   0  0  0  0  0  0  0  0  0  0  0  0
   60.7157  158.7617   -6.4486 H   0  0  0  0  0  0  0  0  0  0  0  0
   58.4296  160.8361   -1.3907 H   0  0  0  0  0  0  0  0  0  0  0  0
   59.4349  159.9685   -2.5519 H   0  0  0  0  0  0  0  0  0  0  0  0
   53.9663  158.7359   -6.5283 H   0  0  0  0  0  0  0  0  0  0  0  0
   52.6183  157.7058   -6.2114 H   0  0  0  0  0  0  0  0  0  0  0  0
   58.4552  162.7047   -2.7516 H   0  0  0  0  0  0  0  0  0  0  0  0
   51.6782  156.1964   -3.5492 H   0  0  0  0  0  0  0  0  0  0  0  0
  1  3  2  0  0  0  0
  1  8  1  0  0  0  0
  2  4  1  0  0  0  0
  2  8  2  0  0  0  0
  3  9  1  0  0  0  0
  4  9  2  0  0  0  0
  5  6  2  0  0  0  0
  5 11  1  0  0  0  0
  6 12  1  0  0  0  0
  7 10  1  0  0  0  0
  7 11  2  0  0  0  0
  8 13  1  0  0  0  0
  9 15  1  0  0  0  0
 10 12  2  0  0  0  0
 10 14  1  0  0  0  0
 11 18  1  0  0  0  0
 12 20  1  0  0  0  0
 13 16  2  0  0  0  0
 13 17  1  0  0  0  0
 15 18  1  0  0  0  0
 16 19  1  0  0  0  0
  1 21  1  0  0  0  0
  2 22  1  0  0  0  0
  3 23  1  0  0  0  0
  4 24  1  0  0  0  0
  5 25  1  0  0  0  0
  6 26  1  0  0  0  0
  7 27  1  0  0  0  0
 14 28  1  0  0  0  0
 14 29  1  0  0  0  0
 14 30  1  0  0  0  0
 15 31  1  0  0  0  0
 15 32  1  0  0  0  0
 17 33  1  0  0  0  0
 17 34  1  0  0  0  0
 18 35  1  0  0  0  0
 19 36  1  0  0  0  0
M  END
> <FRED Chemgauss4 score>
-3.683735

$$$$
C36305538	P53957599
  -OEChem-05122015083D

 24 25  0     1  0  0  0  0  0999 V2000
   55.7608  158.9091   -1.3125 C   0  0  0  0  0  0  0  0  0  0  0  0
   56.4740  158.6319   -3.2545 C   0  0  0  0  0  0  0  0  0  0  0  0
   53.0444  155.1690   -4.5966 C   0  0  0  0  0  0  0  0  0  0  0  0
   54.0955  154.7004   -5.5944 C   0  0  0  0  0  0  0  0  0  0  0  0
   55.5070  156.5508   -5.1583 C   0  0  0  0  0  0  0  0  0  0  0  0
   54.5428  157.1429   -4.1169 C   0  0  1  0  0  0  0  0  0  0  0  0
   53.6881  156.0154   -3.4899 C   0  0  1  0  0  0  0  0  0  0  0  0
   56.7991  159.2377   -2.1362 N   0  0  0  0  0  0  0  0  0  0  0  0
   54.8136  158.1380   -1.8508 N   0  0  0  0  0  0  0  0  0  0  0  0
   55.2939  157.9753   -3.0930 N   0  0  0  0  0  0  0  0  0  0  0  0
   52.6517  156.5607   -2.6102 N   0  0  0  0  0  0  0  0  0  0  0  0
   54.7912  155.8145   -6.1509 O   0  0  0  0  0  0  0  0  0  0  0  0
   55.6909  159.2434   -0.2882 H   0  0  0  0  0  0  0  0  0  0  0  0
   57.0349  158.6376   -4.1784 H   0  0  0  0  0  0  0  0  0  0  0  0
   52.2990  155.7728   -5.1310 H   0  0  0  0  0  0  0  0  0  0  0  0
   52.5242  154.3043   -4.1684 H   0  0  0  0  0  0  0  0  0  0  0  0
   54.8127  154.0147   -5.1280 H   0  0  0  0  0  0  0  0  0  0  0  0
   53.6128  154.1641   -6.4175 H   0  0  0  0  0  0  0  0  0  0  0  0
   56.0502  157.3536   -5.6694 H   0  0  0  0  0  0  0  0  0  0  0  0
   56.2590  155.9008   -4.6929 H   0  0  0  0  0  0  0  0  0  0  0  0
   53.8772  157.8750   -4.6205 H   0  0  0  0  0  0  0  0  0  0  0  0
   54.3355  155.3707   -2.8810 H   0  0  0  0  0  0  0  0  0  0  0  0
   52.8756  157.3671   -2.0718 H   0  0  0  0  0  0  0  0  0  0  0  0
   51.8505  155.9983   -2.4312 H   0  0  0  0  0  0  0  0  0  0  0  0
  1  8  1  0  0  0  0
  1  9  2  0  0  0  0
  2  8  2  0  0  0  0
  2 10  1  0  0  0  0
  3  4  1  0  0  0  0
  3  7  1  0  0  0  0
  4 12  1  0  0  0  0
  5  6  1  0  0  0  0
  5 12  1  0  0  0  0
  6  7  1  0  0  0  0
  6 10  1  0  0  0  0
  7 11  1  0  0  0  0
  9 10  1  0  0  0  0
  1 13  1  0  0  0  0
  2 14  1  0  0  0  0
  3 15  1  0  0  0  0
  3 16  1  0  0  0  0
  4 17  1  0  0  0  0
  4 18  1  0  0  0  0
  5 19  1  0  0  0  0
  5 20  1  0  0  0  0
  6 21  1  0  0  0  0
  7 22  1  0  0  0  0
 11 23  1  0  0  0  0
 11 24  1  0  0  0  0
M  END
> <FRED Chemgauss4 score>
-3.676769

$$$$
C39373033	P91080712
  -OEChem-05122015083D

 12 12  0     1  0  0  0  0  0999 V2000
   53.5225  155.8805   -3.1853 C   0  0  0  0  0  0  0  0  0  0  0  0
   54.2410  157.2988   -4.5489 C   0  0  0  0  0  0  0  0  0  0  0  0
   54.5316  157.0344   -3.0553 C   0  0  1  0  0  0  0  0  0  0  0  0
   53.3593  156.1393   -4.5108 N   0  0  0  0  0  0  0  0  0  0  0  0
   54.0236  158.1443   -2.2551 N   0  0  0  0  0  0  0  0  0  0  0  0
   53.0348  155.0525   -2.4510 O   0  0  0  0  0  0  0  0  0  0  0  0
   53.7114  158.2188   -4.8135 H   0  0  0  0  0  0  0  0  0  0  0  0
   55.0926  157.1525   -5.2194 H   0  0  0  0  0  0  0  0  0  0  0  0
   55.5484  156.7128   -2.8155 H   0  0  0  0  0  0  0  0  0  0  0  0
   52.7635  155.6933   -5.1947 H   0  0  0  0  0  0  0  0  0  0  0  0
   54.2661  159.0717   -2.5305 H   0  0  0  0  0  0  0  0  0  0  0  0
   53.6318  157.9383   -1.3613 H   0  0  0  0  0  0  0  0  0  0  0  0
  1  3  1  0  0  0  0
  1  4  1  0  0  0  0
  1  6  2  0  0  0  0
  2  3  1  0  0  0  0
  2  4  1  0  0  0  0
  3  5  1  0  0  0  0
  2  7  1  0  0  0  0
  2  8  1  0  0  0  0
  3  9  1  0  0  0  0
  4 10  1  0  0  0  0
  5 11  1  0  0  0  0
  5 12  1  0  0  0  0
M  END
> <FRED Chemgauss4 score>
-3.674581

$$$$
C83925146	P131294687
  -OEChem-05122015083D

 32 31  0     1  0  0  0  0  0999 V2000
   57.0442  160.1625   -2.9571 C   0  0  0  0  0  0  0  0  0  0  0  0
   54.9939  160.9610   -4.2020 C   0  0  0  0  0  0  0  0  0  0  0  0
   55.8857  153.0400   -7.2188 C   0  0  0  0  0  0  0  0  0  0  0  0
   53.5626  156.0576   -5.6032 C   0  0  0  0  0  0  0  0  0  0  0  0
   54.5016  157.1090   -5.0232 C   0  0  0  0  0  0  0  0  0  0  0  0
   54.2319  155.2072   -6.6745 C   0  0  0  0  0  0  0  0  0  0  0  0
   55.8095  159.7596   -3.7438 C   0  0  2  0  0  0  0  0  0  0  0  0
   58.2511  159.7538   -3.4568 N   0  0  0  0  0  0  0  0  0  0  0  0
   53.8653  157.9270   -4.0276 N   0  0  0  0  0  0  0  0  0  0  0  0
   56.7714  155.2065   -6.0551 O   0  0  0  0  0  0  0  0  0  0  0  0
   55.2055  153.6916   -4.7805 O   0  0  0  0  0  0  0  0  0  0  0  0
   55.6697  157.6605   -2.1867 O   0  0  0  0  0  0  0  0  0  0  0  0
   53.9414  159.4801   -1.9446 O   0  0  0  0  0  0  0  0  0  0  0  0
   56.9420  161.0607   -1.5482 S   0  0  0  0  0  0  0  0  0  0  0  0
   55.6156  154.3266   -6.0214 S   0  0  0  0  0  0  0  0  0  0  0  0
   54.8008  158.6601   -2.7766 S   0  0  0  0  0  0  0  0  0  0  0  0
   54.6820  161.5706   -3.3475 H   0  0  0  0  0  0  0  0  0  0  0  0
   55.5586  161.6043   -4.8851 H   0  0  0  0  0  0  0  0  0  0  0  0
   54.0941  160.6348   -4.7347 H   0  0  0  0  0  0  0  0  0  0  0  0
   56.7347  152.4378   -6.8916 H   0  0  0  0  0  0  0  0  0  0  0  0
   54.9835  152.4292   -7.2773 H   0  0  0  0  0  0  0  0  0  0  0  0
   56.0959  153.5055   -8.1829 H   0  0  0  0  0  0  0  0  0  0  0  0
   52.6908  156.5635   -6.0359 H   0  0  0  0  0  0  0  0  0  0  0  0
   53.1837  155.4106   -4.8022 H   0  0  0  0  0  0  0  0  0  0  0  0
   55.3782  156.6425   -4.5624 H   0  0  0  0  0  0  0  0  0  0  0  0
   54.8480  157.7811   -5.8145 H   0  0  0  0  0  0  0  0  0  0  0  0
   53.5420  154.4598   -7.0774 H   0  0  0  0  0  0  0  0  0  0  0  0
   54.6103  155.8192   -7.4985 H   0  0  0  0  0  0  0  0  0  0  0  0
   56.1004  159.1785   -4.6272 H   0  0  0  0  0  0  0  0  0  0  0  0
   58.3339  159.2035   -4.3050 H   0  0  0  0  0  0  0  0  0  0  0  0
   59.1170  159.9822   -2.9796 H   0  0  0  0  0  0  0  0  0  0  0  0
   53.0604  158.5027   -4.3596 H   0  0  0  0  0  0  0  0  0  0  0  0
  1  7  1  0  0  0  0
  1  8  1  0  0  0  0
  1 14  2  0  0  0  0
  2  7  1  0  0  0  0
  3 15  1  0  0  0  0
  4  5  1  0  0  0  0
  4  6  1  0  0  0  0
  5  9  1  0  0  0  0
  6 15  1  0  0  0  0
  7 16  1  0  0  0  0
  9 16  1  0  0  0  0
 10 15  2  0  0  0  0
 11 15  2  0  0  0  0
 12 16  2  0  0  0  0
 13 16  2  0  0  0  0
  2 17  1  0  0  0  0
  2 18  1  0  0  0  0
  2 19  1  0  0  0  0
  3 20  1  0  0  0  0
  3 21  1  0  0  0  0
  3 22  1  0  0  0  0
  4 23  1  0  0  0  0
  4 24  1  0  0  0  0
  5 25  1  0  0  0  0
  5 26  1  0  0  0  0
  6 27  1  0  0  0  0
  6 28  1  0  0  0  0
  7 29  1  0  0  0  0
  8 30  1  0  0  0  0
  8 31  1  0  0  0  0
  9 32  1  0  0  0  0
M  END
> <FRED Chemgauss4 score>
-3.673696

$$$$
C78677401	P122772478
  -OEChem-05122015083D

 19 19  0     1  0  0  0  0  0999 V2000
   56.9831  158.8181   -2.4762 C   0  0  0  0  0  0  0  0  0  0  0  0
   55.8168  158.7659   -1.7452 C   0  0  0  0  0  0  0  0  0  0  0  0
   55.8538  158.0977   -4.3297 C   0  0  0  0  0  0  0  0  0  0  0  0
   54.6875  158.0448   -3.5986 C   0  0  0  0  0  0  0  0  0  0  0  0
   53.8526  155.8835   -6.0276 C   0  0  0  0  0  0  0  0  0  0  0  0
   53.4709  156.1922   -4.7823 C   0  0  0  0  0  0  0  0  0  0  0  0
   53.3875  157.6022   -4.2509 C   0  0  2  0  0  0  0  0  0  0  0  0
   57.0226  158.4850   -3.7816 N   0  0  0  0  0  0  0  0  0  0  0  0
   54.6480  158.3782   -2.2933 N   0  0  0  0  0  0  0  0  0  0  0  0
   52.9550  158.5204   -5.3132 N   0  0  0  0  0  0  0  0  0  0  0  0
   57.9218  159.1296   -2.0351 H   0  0  0  0  0  0  0  0  0  0  0  0
   55.7858  159.0339   -0.6964 H   0  0  0  0  0  0  0  0  0  0  0  0
   55.8931  157.8315   -5.3794 H   0  0  0  0  0  0  0  0  0  0  0  0
   53.8900  154.8487   -6.3498 H   0  0  0  0  0  0  0  0  0  0  0  0
   54.1340  156.6494   -6.7416 H   0  0  0  0  0  0  0  0  0  0  0  0
   53.2002  155.3777   -4.1133 H   0  0  0  0  0  0  0  0  0  0  0  0
   52.5958  157.6353   -3.4906 H   0  0  0  0  0  0  0  0  0  0  0  0
   53.1464  159.4870   -5.1922 H   0  0  0  0  0  0  0  0  0  0  0  0
   52.3219  158.1711   -5.9936 H   0  0  0  0  0  0  0  0  0  0  0  0
  1  2  2  0  0  0  0
  1  8  1  0  0  0  0
  2  9  1  0  0  0  0
  3  4  1  0  0  0  0
  3  8  2  0  0  0  0
  4  7  1  0  0  0  0
  4  9  2  0  0  0  0
  5  6  2  0  0  0  0
  6  7  1  0  0  0  0
  7 10  1  0  0  0  0
  1 11  1  0  0  0  0
  2 12  1  0  0  0  0
  3 13  1  0  0  0  0
  5 14  1  0  0  0  0
  5 15  1  0  0  0  0
  6 16  1  0  0  0  0
  7 17  1  0  0  0  0
 10 18  1  0  0  0  0
 10 19  1  0  0  0  0
M  END
> <FRED Chemgauss4 score>
-3.665131

$$$$
C39053143	P59168293
  -OEChem-05122015083D

 15 15  0     0  0  0  0  0  0999 V2000
   55.8125  155.9366   -4.6376 C   0  0  0  0  0  0  0  0  0  0  0  0
   54.0231  154.7782   -5.6657 C   0  0  0  0  0  0  0  0  0  0  0  0
   55.4322  155.2113   -5.6897 C   0  0  0  0  0  0  0  0  0  0  0  0
   53.6021  155.8054   -3.6467 C   0  0  0  0  0  0  0  0  0  0  0  0
   57.5625  155.2294   -6.8332 C   0  0  0  0  0  0  0  0  0  0  0  0
   53.1737  155.0488   -4.7264 N   0  0  0  0  0  0  0  0  0  0  0  0
   54.9295  156.2331   -3.6348 N   0  0  0  0  0  0  0  0  0  0  0  0
   56.2328  154.8671   -6.7300 N   0  0  0  0  0  0  0  0  0  0  0  0
   52.8474  156.0994   -2.7186 O   0  0  0  0  0  0  0  0  0  0  0  0
   58.2265  155.8924   -6.0460 O   0  0  0  0  0  0  0  0  0  0  0  0
   56.8153  156.3268   -4.5133 H   0  0  0  0  0  0  0  0  0  0  0  0
   53.6857  154.1761   -6.5255 H   0  0  0  0  0  0  0  0  0  0  0  0
   58.0013  154.8330   -7.7641 H   0  0  0  0  0  0  0  0  0  0  0  0
   55.2642  156.7882   -2.8531 H   0  0  0  0  0  0  0  0  0  0  0  0
   55.8293  154.3079   -7.4802 H   0  0  0  0  0  0  0  0  0  0  0  0
  1  3  2  0  0  0  0
  1  7  1  0  0  0  0
  2  3  1  0  0  0  0
  2  6  2  0  0  0  0
  3  8  1  0  0  0  0
  4  6  1  0  0  0  0
  4  7  1  0  0  0  0
  4  9  2  0  0  0  0
  5  8  1  0  0  0  0
  5 10  2  0  0  0  0
  1 11  1  0  0  0  0
  2 12  1  0  0  0  0
  5 13  1  0  0  0  0
  7 14  1  0  0  0  0
  8 15  1  0  0  0  0
M  END
> <FRED Chemgauss4 score>
-3.664893

$$$$
C36264756	P53889251
  -OEChem-05122015083D

 19 19  0     1  0  0  0  0  0999 V2000
   53.4668  158.5830   -4.8443 C   0  0  0  0  0  0  0  0  0  0  0  0
   54.4400  158.2247   -3.7532 C   0  0  2  0  0  0  0  0  0  0  0  0
   54.5238  157.5441   -5.0947 C   0  0  2  0  0  0  0  0  0  0  0  0
   56.3607  155.2321   -6.0883 C   0  0  0  0  0  0  0  0  0  0  0  0
   53.9831  157.4747   -2.5804 N   0  0  0  0  0  0  0  0  0  0  0  0
   55.6453  157.7970   -6.0137 N   0  0  0  0  0  0  0  0  0  0  0  0
   58.0439  157.1116   -6.7284 O   0  0  0  0  0  0  0  0  0  0  0  0
   57.3535  156.8596   -4.3086 O   0  0  0  0  0  0  0  0  0  0  0  0
   57.3498  154.3447   -6.3623 F   0  0  0  0  0  0  0  0  0  0  0  0
   55.5605  155.2784   -7.1822 F   0  0  0  0  0  0  0  0  0  0  0  0
   57.0389  156.8265   -5.7232 S   0  0  0  0  0  0  0  0  0  0  0  0
   52.4409  158.2457   -4.7568 H   0  0  0  0  0  0  0  0  0  0  0  0
   53.5766  159.5517   -5.3171 H   0  0  0  0  0  0  0  0  0  0  0  0
   55.2030  158.9632   -3.5272 H   0  0  0  0  0  0  0  0  0  0  0  0
   54.1922  156.5137   -5.1630 H   0  0  0  0  0  0  0  0  0  0  0  0
   55.7868  154.8714   -5.2312 H   0  0  0  0  0  0  0  0  0  0  0  0
   53.2823  157.8887   -2.0087 H   0  0  0  0  0  0  0  0  0  0  0  0
   54.5241  156.6919   -2.2905 H   0  0  0  0  0  0  0  0  0  0  0  0
   55.3393  157.8284   -7.0004 H   0  0  0  0  0  0  0  0  0  0  0  0
  1  2  1  0  0  0  0
  1  3  1  0  0  0  0
  2  3  1  0  0  0  0
  2  5  1  0  0  0  0
  3  6  1  0  0  0  0
  4  9  1  0  0  0  0
  4 10  1  0  0  0  0
  4 11  1  0  0  0  0
  6 11  1  0  0  0  0
  7 11  2  0  0  0  0
  8 11  2  0  0  0  0
  1 12  1  0  0  0  0
  1 13  1  0  0  0  0
  2 14  1  0  0  0  0
  3 15  1  0  0  0  0
  4 16  1  0  0  0  0
  5 17  1  0  0  0  0
  5 18  1  0  0  0  0
  6 19  1  0  0  0  0
M  END
> <FRED Chemgauss4 score>
-3.629234

$$$$
C83523757	P130642951
  -OEChem-05122015083D

 30 30  0     1  0  0  0  0  0999 V2000
   55.5584  158.5249   -5.3306 C   0  0  0  0  0  0  0  0  0  0  0  0
   56.9405  154.2288   -6.5142 C   0  0  0  0  0  0  0  0  0  0  0  0
   55.9922  158.2321   -1.2646 C   0  0  0  0  0  0  0  0  0  0  0  0
   56.1043  159.1690   -2.4409 C   0  0  0  0  0  0  0  0  0  0  0  0
   55.1053  157.1377   -1.8196 C   0  0  0  0  0  0  0  0  0  0  0  0
   54.7034  159.0927   -3.0231 C   0  0  1  0  0  0  0  0  0  0  0  0
   54.6452  159.4126   -4.5042 C   0  0  0  0  0  0  0  0  0  0  0  0
   56.2552  155.2860   -5.6714 C   0  0  0  0  0  0  0  0  0  0  0  0
   55.5552  156.3396   -6.5255 C   0  0  0  0  0  0  0  0  0  0  0  0
   56.1983  153.1036   -6.7572 N   0  0  0  0  0  0  0  0  0  0  0  0
   54.9169  157.3602   -5.7261 N   0  0  0  0  0  0  0  0  0  0  0  0
   56.7175  158.8245   -5.6039 O   0  0  0  0  0  0  0  0  0  0  0  0
   54.2479  157.7482   -2.7957 O   0  0  0  0  0  0  0  0  0  0  0  0
   58.4938  154.4132   -7.1023 S   0  0  0  0  0  0  0  0  0  0  0  0
   56.9548  157.8600   -0.9042 H   0  0  0  0  0  0  0  0  0  0  0  0
   55.4871  158.7376   -0.4330 H   0  0  0  0  0  0  0  0  0  0  0  0
   56.3936  160.1856   -2.1607 H   0  0  0  0  0  0  0  0  0  0  0  0
   56.8472  158.7825   -3.1493 H   0  0  0  0  0  0  0  0  0  0  0  0
   55.6963  156.3699   -2.3301 H   0  0  0  0  0  0  0  0  0  0  0  0
   54.4998  156.6557   -1.0469 H   0  0  0  0  0  0  0  0  0  0  0  0
   54.0280  159.7600   -2.4743 H   0  0  0  0  0  0  0  0  0  0  0  0
   54.9374  160.4567   -4.6676 H   0  0  0  0  0  0  0  0  0  0  0  0
   53.6185  159.2880   -4.8681 H   0  0  0  0  0  0  0  0  0  0  0  0
   55.5469  154.8264   -4.9719 H   0  0  0  0  0  0  0  0  0  0  0  0
   57.0283  155.7845   -5.0728 H   0  0  0  0  0  0  0  0  0  0  0  0
   54.7856  155.9008   -7.1677 H   0  0  0  0  0  0  0  0  0  0  0  0
   56.2868  156.8465   -7.1628 H   0  0  0  0  0  0  0  0  0  0  0  0
   55.2560  152.9880   -6.3985 H   0  0  0  0  0  0  0  0  0  0  0  0
   56.5709  152.3405   -7.3124 H   0  0  0  0  0  0  0  0  0  0  0  0
   53.9526  157.2180   -5.4402 H   0  0  0  0  0  0  0  0  0  0  0  0
  1  7  1  0  0  0  0
  1 11  1  0  0  0  0
  1 12  2  0  0  0  0
  2  8  1  0  0  0  0
  2 10  1  0  0  0  0
  2 14  2  0  0  0  0
  3  4  1  0  0  0  0
  3  5  1  0  0  0  0
  4  6  1  0  0  0  0
  5 13  1  0  0  0  0
  6  7  1  0  0  0  0
  6 13  1  0  0  0  0
  8  9  1  0  0  0  0
  9 11  1  0  0  0  0
  3 15  1  0  0  0  0
  3 16  1  0  0  0  0
  4 17  1  0  0  0  0
  4 18  1  0  0  0  0
  5 19  1  0  0  0  0
  5 20  1  0  0  0  0
  6 21  1  0  0  0  0
  7 22  1  0  0  0  0
  7 23  1  0  0  0  0
  8 24  1  0  0  0  0
  8 25  1  0  0  0  0
  9 26  1  0  0  0  0
  9 27  1  0  0  0  0
 10 28  1  0  0  0  0
 10 29  1  0  0  0  0
 11 30  1  0  0  0  0
M  END
> <FRED Chemgauss4 score>
-3.622282

$$$$
C54763106	P82433221
  -OEChem-05122015083D

 27 28  0     0  0  0  0  0  0999 V2000
   53.1917  155.4499   -4.8532 C   0  0  0  0  0  0  0  0  0  0  0  0
   53.8820  154.4591   -5.5513 C   0  0  0  0  0  0  0  0  0  0  0  0
   54.6960  157.1210   -5.7373 C   0  0  0  0  0  0  0  0  0  0  0  0
   56.0301  159.1067   -3.5804 C   0  0  0  0  0  0  0  0  0  0  0  0
   55.9556  158.6101   -1.4346 C   0  0  0  0  0  0  0  0  0  0  0  0
   55.3863  156.1301   -6.4355 C   0  0  0  0  0  0  0  0  0  0  0  0
   53.5986  156.7808   -4.9462 C   0  0  0  0  0  0  0  0  0  0  0  0
   54.9793  154.7992   -6.3425 C   0  0  0  0  0  0  0  0  0  0  0  0
   54.7357  158.9417   -3.1470 C   0  0  0  0  0  0  0  0  0  0  0  0
   56.5565  156.5411   -7.2697 C   0  0  0  0  0  0  0  0  0  0  0  0
   53.4673  159.0610   -3.9415 C   0  0  0  0  0  0  0  0  0  0  0  0
   54.6961  158.6331   -1.8103 N   0  0  0  0  0  0  0  0  0  0  0  0
   56.8001  158.8916   -2.4723 N   0  0  0  0  0  0  0  0  0  0  0  0
   52.9005  157.7823   -4.2398 N   0  0  0  0  0  0  0  0  0  0  0  0
   55.8864  153.4175   -7.2724 Br  0  0  0  0  0  0  0  0  0  0  0  0
   52.3367  155.1743   -4.2410 H   0  0  0  0  0  0  0  0  0  0  0  0
   53.5481  153.4278   -5.4676 H   0  0  0  0  0  0  0  0  0  0  0  0
   55.0133  158.1592   -5.8084 H   0  0  0  0  0  0  0  0  0  0  0  0
   56.4618  159.3493   -4.5408 H   0  0  0  0  0  0  0  0  0  0  0  0
   56.3194  158.3991   -0.4389 H   0  0  0  0  0  0  0  0  0  0  0  0
   57.4756  156.5103   -6.6739 H   0  0  0  0  0  0  0  0  0  0  0  0
   56.6772  155.8784   -8.1349 H   0  0  0  0  0  0  0  0  0  0  0  0
   56.4257  157.5574   -7.6604 H   0  0  0  0  0  0  0  0  0  0  0  0
   52.7194  159.6411   -3.3901 H   0  0  0  0  0  0  0  0  0  0  0  0
   53.6451  159.5779   -4.8903 H   0  0  0  0  0  0  0  0  0  0  0  0
   57.8096  158.9321   -2.4278 H   0  0  0  0  0  0  0  0  0  0  0  0
   51.9681  157.5632   -3.9436 H   0  0  0  0  0  0  0  0  0  0  0  0
  1  2  2  0  0  0  0
  1  7  1  0  0  0  0
  2  8  1  0  0  0  0
  3  6  1  0  0  0  0
  3  7  2  0  0  0  0
  4  9  2  0  0  0  0
  4 13  1  0  0  0  0
  5 12  2  0  0  0  0
  5 13  1  0  0  0  0
  6  8  2  0  0  0  0
  6 10  1  0  0  0  0
  7 14  1  0  0  0  0
  8 15  1  0  0  0  0
  9 11  1  0  0  0  0
  9 12  1  0  0  0  0
 11 14  1  0  0  0  0
  1 16  1  0  0  0  0
  2 17  1  0  0  0  0
  3 18  1  0  0  0  0
  4 19  1  0  0  0  0
  5 20  1  0  0  0  0
 10 21  1  0  0  0  0
 10 22  1  0  0  0  0
 10 23  1  0  0  0  0
 11 24  1  0  0  0  0
 11 25  1  0  0  0  0
 13 26  1  0  0  0  0
 14 27  1  0  0  0  0
M  END
> <FRED Chemgauss4 score>
-3.620985

$$$$
C63143169	P96955688
  -OEChem-05122015083D

 36 36  0     1  0  0  0  0  0999 V2000
   56.2080  155.1451   -5.7425 C   0  0  0  0  0  0  0  0  0  0  0  0
   52.7413  155.1781   -5.2532 C   0  0  0  0  0  0  0  0  0  0  0  0
   53.8129  155.3087   -6.3310 C   0  0  0  0  0  0  0  0  0  0  0  0
   53.5153  155.2150   -3.9449 C   0  0  0  0  0  0  0  0  0  0  0  0
   54.9849  156.0435   -5.6762 C   0  0  1  0  0  0  0  0  0  0  0  0
   54.6138  156.2435   -4.2053 C   0  0  1  0  0  0  0  0  0  0  0  0
   59.6532  159.2624   -3.8641 C   0  0  0  0  0  0  0  0  0  0  0  0
   57.1712  160.0847   -2.9198 C   0  0  0  0  0  0  0  0  0  0  0  0
   56.2777  159.1723   -3.7330 C   0  0  0  0  0  0  0  0  0  0  0  0
   56.0802  153.9261   -5.1361 N   0  0  0  0  0  0  0  0  0  0  0  0
   54.1318  157.5846   -3.9691 N   0  0  0  0  0  0  0  0  0  0  0  0
   58.1360  160.9182   -5.2017 O   0  0  0  0  0  0  0  0  0  0  0  0
   59.2131  161.7105   -3.0607 O   0  0  0  0  0  0  0  0  0  0  0  0
   55.4375  157.6990   -1.7396 O   0  0  0  0  0  0  0  0  0  0  0  0
   54.0417  159.6629   -2.4820 O   0  0  0  0  0  0  0  0  0  0  0  0
   57.6149  155.6236   -6.5049 S   0  0  0  0  0  0  0  0  0  0  0  0
   58.5627  160.6670   -3.8354 S   0  0  0  0  0  0  0  0  0  0  0  0
   54.9063  158.5409   -2.7936 S   0  0  0  0  0  0  0  0  0  0  0  0
   52.0449  156.0227   -5.3119 H   0  0  0  0  0  0  0  0  0  0  0  0
   52.1577  154.2590   -5.3623 H   0  0  0  0  0  0  0  0  0  0  0  0
   54.1036  154.3157   -6.6944 H   0  0  0  0  0  0  0  0  0  0  0  0
   53.4232  155.8647   -7.1907 H   0  0  0  0  0  0  0  0  0  0  0  0
   52.8724  155.4730   -3.0976 H   0  0  0  0  0  0  0  0  0  0  0  0
   53.9608  154.2316   -3.7517 H   0  0  0  0  0  0  0  0  0  0  0  0
   55.2306  156.9555   -6.1883 H   0  0  0  0  0  0  0  0  0  0  0  0
   55.4716  156.0603   -3.5242 H   0  0  0  0  0  0  0  0  0  0  0  0
   60.5527  159.5360   -4.4179 H   0  0  0  0  0  0  0  0  0  0  0  0
   59.9029  158.9992   -2.8352 H   0  0  0  0  0  0  0  0  0  0  0  0
   59.1376  158.4363   -4.3561 H   0  0  0  0  0  0  0  0  0  0  0  0
   56.6350  160.9653   -2.5544 H   0  0  0  0  0  0  0  0  0  0  0  0
   57.5815  159.5432   -2.0617 H   0  0  0  0  0  0  0  0  0  0  0  0
   56.8406  158.2961   -4.0688 H   0  0  0  0  0  0  0  0  0  0  0  0
   55.8622  159.6782   -4.6092 H   0  0  0  0  0  0  0  0  0  0  0  0
   55.2154  153.6594   -4.6773 H   0  0  0  0  0  0  0  0  0  0  0  0
   56.8319  153.2444   -5.1176 H   0  0  0  0  0  0  0  0  0  0  0  0
   53.7994  158.0520   -4.8172 H   0  0  0  0  0  0  0  0  0  0  0  0
  1  5  1  0  0  0  0
  1 10  1  0  0  0  0
  1 16  2  0  0  0  0
  2  3  1  0  0  0  0
  2  4  1  0  0  0  0
  3  5  1  0  0  0  0
  4  6  1  0  0  0  0
  5  6  1  0  0  0  0
  6 11  1  0  0  0  0
  7 17  1  0  0  0  0
  8  9  1  0  0  0  0
  8 17  1  0  0  0  0
  9 18  1  0  0  0  0
 11 18  1  0  0  0  0
 12 17  2  0  0  0  0
 13 17  2  0  0  0  0
 14 18  2  0  0  0  0
 15 18  2  0  0  0  0
  2 19  1  0  0  0  0
  2 20  1  0  0  0  0
  3 21  1  0  0  0  0
  3 22  1  0  0  0  0
  4 23  1  0  0  0  0
  4 24  1  0  0  0  0
  5 25  1  0  0  0  0
  6 26  1  0  0  0  0
  7 27  1  0  0  0  0
  7 28  1  0  0  0  0
  7 29  1  0  0  0  0
  8 30  1  0  0  0  0
  8 31  1  0  0  0  0
  9 32  1  0  0  0  0
  9 33  1  0  0  0  0
 10 34  1  0  0  0  0
 10 35  1  0  0  0  0
 11 36  1  0  0  0  0
M  END
> <FRED Chemgauss4 score>
-3.591979

$$$$
C19167104	P56654440
  -OEChem-05122015083D

 32 32  0     0  0  0  0  0  0999 V2000
   56.2928  159.0761   -3.8605 C   0  0  0  0  0  0  0  0  0  0  0  0
   57.1617  158.2223   -1.7739 C   0  0  0  0  0  0  0  0  0  0  0  0
   54.8769  159.0702   -3.2707 C   0  0  0  0  0  0  0  0  0  0  0  0
   55.7442  158.2178   -1.1881 C   0  0  0  0  0  0  0  0  0  0  0  0
   58.6464  159.2574   -3.3677 C   0  0  0  0  0  0  0  0  0  0  0  0
   53.2089  156.4384   -3.3278 C   0  0  0  0  0  0  0  0  0  0  0  0
   54.5754  156.7251   -2.7089 C   0  0  0  0  0  0  0  0  0  0  0  0
   53.0756  155.0296   -3.9019 C   0  0  0  0  0  0  0  0  0  0  0  0
   57.2972  159.2570   -2.8058 N   0  0  0  0  0  0  0  0  0  0  0  0
   54.6839  158.0892   -2.1956 N   0  0  0  0  0  0  0  0  0  0  0  0
   53.7790  155.6945   -6.0301 N   0  0  0  0  0  0  0  0  0  0  0  0
   54.0162  154.7727   -4.9578 N   0  0  0  0  0  0  0  0  0  0  0  0
   56.4662  158.1419   -4.4114 H   0  0  0  0  0  0  0  0  0  0  0  0
   56.3611  159.8984   -4.5829 H   0  0  0  0  0  0  0  0  0  0  0  0
   57.8698  158.4160   -0.9592 H   0  0  0  0  0  0  0  0  0  0  0  0
   57.3955  157.2291   -2.1808 H   0  0  0  0  0  0  0  0  0  0  0  0
   54.6243  160.0928   -2.9141 H   0  0  0  0  0  0  0  0  0  0  0  0
   54.1637  158.8595   -4.0942 H   0  0  0  0  0  0  0  0  0  0  0  0
   55.6733  157.3753   -0.4694 H   0  0  0  0  0  0  0  0  0  0  0  0
   55.5951  159.1381   -0.5817 H   0  0  0  0  0  0  0  0  0  0  0  0
   59.3843  159.3927   -2.5728 H   0  0  0  0  0  0  0  0  0  0  0  0
   58.7545  160.0707   -4.0905 H   0  0  0  0  0  0  0  0  0  0  0  0
   58.8450  158.3093   -3.8746 H   0  0  0  0  0  0  0  0  0  0  0  0
   53.0238  157.1723   -4.1217 H   0  0  0  0  0  0  0  0  0  0  0  0
   52.4301  156.5818   -2.5687 H   0  0  0  0  0  0  0  0  0  0  0  0
   54.7943  156.0392   -1.8848 H   0  0  0  0  0  0  0  0  0  0  0  0
   55.3587  156.6068   -3.4643 H   0  0  0  0  0  0  0  0  0  0  0  0
   52.0761  154.8938   -4.3271 H   0  0  0  0  0  0  0  0  0  0  0  0
   53.2215  154.2668   -3.1309 H   0  0  0  0  0  0  0  0  0  0  0  0
   53.0196  156.3233   -5.7700 H   0  0  0  0  0  0  0  0  0  0  0  0
   54.5990  156.2863   -6.1578 H   0  0  0  0  0  0  0  0  0  0  0  0
   53.8994  153.8199   -5.3198 H   0  0  0  0  0  0  0  0  0  0  0  0
  1  3  1  0  0  0  0
  1  9  1  0  0  0  0
  2  4  1  0  0  0  0
  2  9  1  0  0  0  0
  3 10  1  0  0  0  0
  4 10  1  0  0  0  0
  5  9  1  0  0  0  0
  6  7  1  0  0  0  0
  6  8  1  0  0  0  0
  7 10  1  0  0  0  0
  8 12  1  0  0  0  0
 11 12  1  0  0  0  0
  1 13  1  0  0  0  0
  1 14  1  0  0  0  0
  2 15  1  0  0  0  0
  2 16  1  0  0  0  0
  3 17  1  0  0  0  0
  3 18  1  0  0  0  0
  4 19  1  0  0  0  0
  4 20  1  0  0  0  0
  5 21  1  0  0  0  0
  5 22  1  0  0  0  0
  5 23  1  0  0  0  0
  6 24  1  0  0  0  0
  6 25  1  0  0  0  0
  7 26  1  0  0  0  0
  7 27  1  0  0  0  0
  8 28  1  0  0  0  0
  8 29  1  0  0  0  0
 11 30  1  0  0  0  0
 11 31  1  0  0  0  0
 12 32  1  0  0  0  0
M  END
> <FRED Chemgauss4 score>
-3.581654

$$$$
C38809856	P134917409
  -OEChem-05122015083D

 17 16  0     0  0  0  0  0  0999 V2000
   55.4428  153.4921   -7.0769 C   0  0  0  0  0  0  0  0  0  0  0  0
   54.8187  154.4395   -6.6839 C   0  0  0  0  0  0  0  0  0  0  0  0
   53.8964  156.3183   -3.2324 C   0  0  0  0  0  0  0  0  0  0  0  0
   54.0597  155.5986   -6.2081 C   0  0  0  0  0  0  0  0  0  0  0  0
   53.6897  154.9856   -3.9172 C   0  0  0  0  0  0  0  0  0  0  0  0
   55.1140  156.8689   -3.5512 N   0  0  0  0  0  0  0  0  0  0  0  0
   53.0793  155.1951   -5.1967 N   0  0  0  0  0  0  0  0  0  0  0  0
   53.0837  156.8077   -2.4516 O   0  0  0  0  0  0  0  0  0  0  0  0
   55.4185  158.0816   -2.9185 O   0  0  0  0  0  0  0  0  0  0  0  0
   55.9958  152.6515   -7.4256 H   0  0  0  0  0  0  0  0  0  0  0  0
   53.5372  156.0791   -7.0410 H   0  0  0  0  0  0  0  0  0  0  0  0
   54.7386  156.3400   -5.7750 H   0  0  0  0  0  0  0  0  0  0  0  0
   54.6439  154.4755   -4.0751 H   0  0  0  0  0  0  0  0  0  0  0  0
   53.0283  154.3590   -3.3130 H   0  0  0  0  0  0  0  0  0  0  0  0
   55.7518  156.4259   -4.2030 H   0  0  0  0  0  0  0  0  0  0  0  0
   52.3620  155.9286   -5.1366 H   0  0  0  0  0  0  0  0  0  0  0  0
   54.6156  158.2067   -2.3847 H   0  0  0  0  0  0  0  0  0  0  0  0
  1  2  3  0  0  0  0
  2  4  1  0  0  0  0
  3  5  1  0  0  0  0
  3  6  1  0  0  0  0
  3  8  2  0  0  0  0
  4  7  1  0  0  0  0
  5  7  1  0  0  0  0
  6  9  1  0  0  0  0
  1 10  1  0  0  0  0
  4 11  1  0  0  0  0
  4 12  1  0  0  0  0
  5 13  1  0  0  0  0
  5 14  1  0  0  0  0
  6 15  1  0  0  0  0
  7 16  1  0  0  0  0
  9 17  1  0  0  0  0
M  END
> <FRED Chemgauss4 score>
-3.555706

$$$$
C04775726	P07275946
  -OEChem-05122015083D

 12 11  0     0  0  0  0  0  0999 V2000
   54.3662  155.8403   -4.7719 C   0  0  0  0  0  0  0  0  0  0  0  0
   53.3274  156.1027   -3.7270 C   0  0  0  0  0  0  0  0  0  0  0  0
   54.5009  156.8738   -5.6522 N   0  0  0  0  0  0  0  0  0  0  0  0
   52.0813  155.7008   -4.1101 N   0  0  0  0  0  0  0  0  0  0  0  0
   54.9552  154.7718   -4.7411 O   0  0  0  0  0  0  0  0  0  0  0  0
   53.6801  156.6362   -2.6874 O   0  0  0  0  0  0  0  0  0  0  0  0
   55.4479  156.6900   -6.6678 O   0  0  0  0  0  0  0  0  0  0  0  0
   51.0555  155.9296   -3.1840 O   0  0  0  0  0  0  0  0  0  0  0  0
   53.9504  157.7215   -5.5761 H   0  0  0  0  0  0  0  0  0  0  0  0
   51.9085  155.2642   -5.0084 H   0  0  0  0  0  0  0  0  0  0  0  0
   55.7722  155.8016   -6.4425 H   0  0  0  0  0  0  0  0  0  0  0  0
   51.5616  156.3463   -2.4659 H   0  0  0  0  0  0  0  0  0  0  0  0
  1  2  1  0  0  0  0
  1  3  1  0  0  0  0
  1  5  2  0  0  0  0
  2  4  1  0  0  0  0
  2  6  2  0  0  0  0
  3  7  1  0  0  0  0
  4  8  1  0  0  0  0
  3  9  1  0  0  0  0
  4 10  1  0  0  0  0
  7 11  1  0  0  0  0
  8 12  1  0  0  0  0
M  END
> <FRED Chemgauss4 score>
-3.545357

$$$$
C81147639	P126701390
  -OEChem-05122015083D

 13 13  0     0  0  0  0  0  0999 V2000
   53.7355  156.4113   -3.6349 C   0  0  0  0  0  0  0  0  0  0  0  0
   55.1614  155.9172   -3.8220 C   0  0  0  0  0  0  0  0  0  0  0  0
   53.5322  156.1733   -6.1051 C   0  0  0  0  0  0  0  0  0  0  0  0
   53.0385  156.6102   -4.8123 N   0  0  0  0  0  0  0  0  0  0  0  0
   54.9863  156.2171   -6.1125 N   0  0  0  0  0  0  0  0  0  0  0  0
   53.2802  156.6660   -2.5215 O   0  0  0  0  0  0  0  0  0  0  0  0
   55.3556  155.2700   -5.0671 O   0  0  0  0  0  0  0  0  0  0  0  0
   55.8532  156.7612   -3.7214 H   0  0  0  0  0  0  0  0  0  0  0  0
   55.3792  155.1924   -3.0314 H   0  0  0  0  0  0  0  0  0  0  0  0
   53.1514  155.1634   -6.2924 H   0  0  0  0  0  0  0  0  0  0  0  0
   53.1246  156.8484   -6.8627 H   0  0  0  0  0  0  0  0  0  0  0  0
   52.1409  157.0832   -4.7705 H   0  0  0  0  0  0  0  0  0  0  0  0
   55.3436  155.7421   -6.9404 H   0  0  0  0  0  0  0  0  0  0  0  0
  1  2  1  0  0  0  0
  1  4  1  0  0  0  0
  1  6  2  0  0  0  0
  2  7  1  0  0  0  0
  3  4  1  0  0  0  0
  3  5  1  0  0  0  0
  5  7  1  0  0  0  0
  2  8  1  0  0  0  0
  2  9  1  0  0  0  0
  3 10  1  0  0  0  0
  3 11  1  0  0  0  0
  4 12  1  0  0  0  0
  5 13  1  0  0  0  0
M  END
> <FRED Chemgauss4 score>
-3.516849

$$$$
C83947682	P131340967
  -OEChem-05122015083D

 21 21  0     1  0  0  0  0  0999 V2000
   57.0088  156.5843   -5.0244 C   0  0  0  0  0  0  0  0  0  0  0  0
   55.4057  155.0835   -5.1385 C   0  0  0  0  0  0  0  0  0  0  0  0
   55.7644  156.2287   -4.4703 C   0  0  0  0  0  0  0  0  0  0  0  0
   53.9187  158.7126   -4.8119 C   0  0  0  0  0  0  0  0  0  0  0  0
   54.6664  158.3715   -3.7553 C   0  0  0  0  0  0  0  0  0  0  0  0
   56.4928  153.7285   -6.9443 C   0  0  0  0  0  0  0  0  0  0  0  0
   54.9908  156.9471   -3.3764 C   0  0  1  0  0  0  0  0  0  0  0  0
   57.4135  155.7338   -5.9714 N   0  0  0  0  0  0  0  0  0  0  0  0
   56.4178  154.8324   -6.0176 N   0  0  0  0  0  0  0  0  0  0  0  0
   53.7730  156.2208   -2.9917 N   0  0  0  0  0  0  0  0  0  0  0  0
   57.6398  157.4266   -4.7785 H   0  0  0  0  0  0  0  0  0  0  0  0
   54.5387  154.4412   -5.0642 H   0  0  0  0  0  0  0  0  0  0  0  0
   53.7233  159.7564   -5.0321 H   0  0  0  0  0  0  0  0  0  0  0  0
   53.4902  157.9647   -5.4696 H   0  0  0  0  0  0  0  0  0  0  0  0
   55.0685  159.1692   -3.1340 H   0  0  0  0  0  0  0  0  0  0  0  0
   56.0262  154.0426   -7.8816 H   0  0  0  0  0  0  0  0  0  0  0  0
   57.5405  153.4621   -7.1093 H   0  0  0  0  0  0  0  0  0  0  0  0
   55.9663  152.8672   -6.5237 H   0  0  0  0  0  0  0  0  0  0  0  0
   55.6159  156.9681   -2.4739 H   0  0  0  0  0  0  0  0  0  0  0  0
   53.0559  156.7339   -2.5353 H   0  0  0  0  0  0  0  0  0  0  0  0
   53.8017  155.2287   -3.0170 H   0  0  0  0  0  0  0  0  0  0  0  0
  1  3  1  0  0  0  0
  1  8  2  0  0  0  0
  2  3  2  0  0  0  0
  2  9  1  0  0  0  0
  3  7  1  0  0  0  0
  4  5  2  0  0  0  0
  5  7  1  0  0  0  0
  6  9  1  0  0  0  0
  7 10  1  0  0  0  0
  8  9  1  0  0  0  0
  1 11  1  0  0  0  0
  2 12  1  0  0  0  0
  4 13  1  0  0  0  0
  4 14  1  0  0  0  0
  5 15  1  0  0  0  0
  6 16  1  0  0  0  0
  6 17  1  0  0  0  0
  6 18  1  0  0  0  0
  7 19  1  0  0  0  0
 10 20  1  0  0  0  0
 10 21  1  0  0  0  0
M  END
> <FRED Chemgauss4 score>
-3.475593

$$$$
C97734251	P155041729
  -OEChem-05122015083D

 40 41  0     1  0  0  0  0  0999 V2000
   56.0908  157.4144   -4.7870 C   0  0  0  0  0  0  0  0  0  0  0  0
   55.8630  156.2449   -4.0703 C   0  0  0  0  0  0  0  0  0  0  0  0
   54.7401  158.5798   -3.2141 C   0  0  0  0  0  0  0  0  0  0  0  0
   55.5223  158.6083   -4.3574 C   0  0  0  0  0  0  0  0  0  0  0  0
   56.9240  161.0528   -3.1635 C   0  0  0  0  0  0  0  0  0  0  0  0
   55.0658  156.3222   -2.9397 C   0  0  0  0  0  0  0  0  0  0  0  0
   56.3693  162.2116   -2.5879 C   0  0  0  0  0  0  0  0  0  0  0  0
   57.3930  160.3292   -2.0945 C   0  0  0  0  0  0  0  0  0  0  0  0
   54.8006  155.0866   -2.1461 C   0  0  0  0  0  0  0  0  0  0  0  0
   55.7212  163.3415   -3.2768 C   0  0  0  0  0  0  0  0  0  0  0  0
   58.0798  159.0254   -2.0270 C   0  0  0  0  0  0  0  0  0  0  0  0
   57.3974  160.7310    0.3862 C   0  0  0  0  0  0  0  0  0  0  0  0
   56.9909  160.6847   -4.6282 C   0  0  0  0  0  0  0  0  0  0  0  0
   55.7466  159.8761   -5.1024 C   0  0  2  0  0  0  0  0  0  0  0  0
   54.4963  157.4635   -2.4916 N   0  0  0  0  0  0  0  0  0  0  0  0
   56.4752  162.2273   -1.2565 N   0  0  0  0  0  0  0  0  0  0  0  0
   57.1018  161.0695   -0.9867 N   0  0  0  0  0  0  0  0  0  0  0  0
   53.6466  160.3018   -6.0391 N   0  0  0  0  0  0  0  0  0  0  0  0
   54.5617  160.7629   -5.0556 N   0  0  0  0  0  0  0  0  0  0  0  0
   56.7119  157.3865   -5.6780 H   0  0  0  0  0  0  0  0  0  0  0  0
   56.3007  155.3070   -4.3949 H   0  0  0  0  0  0  0  0  0  0  0  0
   54.2704  159.4805   -2.8310 H   0  0  0  0  0  0  0  0  0  0  0  0
   55.5648  154.9610   -1.3698 H   0  0  0  0  0  0  0  0  0  0  0  0
   53.8162  155.1281   -1.6628 H   0  0  0  0  0  0  0  0  0  0  0  0
   54.8036  154.1949   -2.7859 H   0  0  0  0  0  0  0  0  0  0  0  0
   54.6362  163.1742   -3.3858 H   0  0  0  0  0  0  0  0  0  0  0  0
   55.8585  164.2938   -2.7347 H   0  0  0  0  0  0  0  0  0  0  0  0
   56.1360  163.5062   -4.2872 H   0  0  0  0  0  0  0  0  0  0  0  0
   59.1740  159.1481   -2.0862 H   0  0  0  0  0  0  0  0  0  0  0  0
   57.8540  158.4856   -1.0911 H   0  0  0  0  0  0  0  0  0  0  0  0
   57.7739  158.3527   -2.8470 H   0  0  0  0  0  0  0  0  0  0  0  0
   58.3852  161.1323    0.6273 H   0  0  0  0  0  0  0  0  0  0  0  0
   56.6374  161.1672    1.0405 H   0  0  0  0  0  0  0  0  0  0  0  0
   57.3870  159.6434    0.5006 H   0  0  0  0  0  0  0  0  0  0  0  0
   57.9144  160.1095   -4.7840 H   0  0  0  0  0  0  0  0  0  0  0  0
   57.1102  161.5941   -5.2318 H   0  0  0  0  0  0  0  0  0  0  0  0
   55.8943  159.6592   -6.1788 H   0  0  0  0  0  0  0  0  0  0  0  0
   53.9814  159.4257   -6.4390 H   0  0  0  0  0  0  0  0  0  0  0  0
   52.7705  160.0766   -5.5695 H   0  0  0  0  0  0  0  0  0  0  0  0
   54.8624  161.7043   -5.2709 H   0  0  0  0  0  0  0  0  0  0  0  0
  1  2  2  0  0  0  0
  1  4  1  0  0  0  0
  2  6  1  0  0  0  0
  3  4  2  0  0  0  0
  3 15  1  0  0  0  0
  4 14  1  0  0  0  0
  5  7  1  0  0  0  0
  5  8  2  0  0  0  0
  5 13  1  0  0  0  0
  6  9  1  0  0  0  0
  6 15  2  0  0  0  0
  7 10  1  0  0  0  0
  7 16  2  0  0  0  0
  8 11  1  0  0  0  0
  8 17  1  0  0  0  0
 12 17  1  0  0  0  0
 13 14  1  0  0  0  0
 14 19  1  0  0  0  0
 16 17  1  0  0  0  0
 18 19  1  0  0  0  0
  1 20  1  0  0  0  0
  2 21  1  0  0  0  0
  3 22  1  0  0  0  0
  9 23  1  0  0  0  0
  9 24  1  0  0  0  0
  9 25  1  0  0  0  0
 10 26  1  0  0  0  0
 10 27  1  0  0  0  0
 10 28  1  0  0  0  0
 11 29  1  0  0  0  0
 11 30  1  0  0  0  0
 11 31  1  0  0  0  0
 12 32  1  0  0  0  0
 12 33  1  0  0  0  0
 12 34  1  0  0  0  0
 13 35  1  0  0  0  0
 13 36  1  0  0  0  0
 14 37  1  0  0  0  0
 18 38  1  0  0  0  0
 18 39  1  0  0  0  0
 19 40  1  0  0  0  0
M  END
> <FRED Chemgauss4 score>
-3.451438

$$$$
C96333752	P151988969
  -OEChem-05122015083D

 23 23  0     1  0  0  0  0  0999 V2000
   55.4640  156.9893   -5.4423 C   0  0  0  0  0  0  0  0  0  0  0  0
   53.7371  156.6404   -3.1694 C   0  0  0  0  0  0  0  0  0  0  0  0
   54.1994  156.1497   -5.5613 C   0  0  2  0  0  0  0  0  0  0  0  0
   55.2441  156.4817   -3.0197 C   0  0  2  0  0  0  0  0  0  0  0  0
   53.5362  156.3102   -6.9197 C   0  0  0  0  0  0  0  0  0  0  0  0
   55.7405  157.0071   -1.6824 C   0  0  0  0  0  0  0  0  0  0  0  0
   53.3116  156.5703   -4.4872 N   0  0  0  0  0  0  0  0  0  0  0  0
   55.8557  157.1988   -4.1289 N   0  0  0  0  0  0  0  0  0  0  0  0
   55.9143  158.8631   -0.3033 N   0  0  0  0  0  0  0  0  0  0  0  0
   56.1330  157.3462   -6.4091 O   0  0  0  0  0  0  0  0  0  0  0  0
   52.9653  156.7068   -2.2158 O   0  0  0  0  0  0  0  0  0  0  0  0
   55.4289  158.3870   -1.5903 O   0  0  0  0  0  0  0  0  0  0  0  0
   54.4629  155.0993   -5.3910 H   0  0  0  0  0  0  0  0  0  0  0  0
   55.4926  155.4193   -3.1246 H   0  0  0  0  0  0  0  0  0  0  0  0
   53.2740  157.3558   -7.0891 H   0  0  0  0  0  0  0  0  0  0  0  0
   52.6275  155.7081   -6.9682 H   0  0  0  0  0  0  0  0  0  0  0  0
   54.2149  155.9859   -7.7103 H   0  0  0  0  0  0  0  0  0  0  0  0
   56.8221  156.8797   -1.6048 H   0  0  0  0  0  0  0  0  0  0  0  0
   55.2522  156.4757   -0.8630 H   0  0  0  0  0  0  0  0  0  0  0  0
   52.3524  156.8197   -4.7096 H   0  0  0  0  0  0  0  0  0  0  0  0
   56.5909  157.8723   -3.9350 H   0  0  0  0  0  0  0  0  0  0  0  0
   56.8911  158.5778   -0.3549 H   0  0  0  0  0  0  0  0  0  0  0  0
   55.4527  158.2071    0.3249 H   0  0  0  0  0  0  0  0  0  0  0  0
  1  3  1  0  0  0  0
  1  8  1  0  0  0  0
  1 10  2  0  0  0  0
  2  4  1  0  0  0  0
  2  7  1  0  0  0  0
  2 11  2  0  0  0  0
  3  5  1  0  0  0  0
  3  7  1  0  0  0  0
  4  6  1  0  0  0  0
  4  8  1  0  0  0  0
  6 12  1  0  0  0  0
  9 12  1  0  0  0  0
  3 13  1  0  0  0  0
  4 14  1  0  0  0  0
  5 15  1  0  0  0  0
  5 16  1  0  0  0  0
  5 17  1  0  0  0  0
  6 18  1  0  0  0  0
  6 19  1  0  0  0  0
  7 20  1  0  0  0  0
  8 21  1  0  0  0  0
  9 22  1  0  0  0  0
  9 23  1  0  0  0  0
M  END
> <FRED Chemgauss4 score>
-3.451230

$$$$
C98209915	P156180136
  -OEChem-05122015083D

 22 22  0     1  0  0  0  0  0999 V2000
   54.2138  156.3426   -5.9616 C   0  0  0  0  0  0  0  0  0  0  0  0
   54.7133  154.9626   -5.5823 C   0  0  0  0  0  0  0  0  0  0  0  0
   55.5247  156.4828   -3.9875 C   0  0  2  0  0  0  0  0  0  0  0  0
   54.2701  157.0754   -4.6352 C   0  0  1  0  0  0  0  0  0  0  0  0
   56.8376  157.1800   -4.3245 C   0  0  0  0  0  0  0  0  0  0  0  0
   54.2307  158.5900   -4.7676 C   0  0  0  0  0  0  0  0  0  0  0  0
   53.0290  158.9920   -5.4221 N   0  0  0  0  0  0  0  0  0  0  0  0
   55.6233  155.1297   -4.4867 O   0  0  0  0  0  0  0  0  0  0  0  0
   53.1461  156.6713   -3.8433 O   0  0  0  0  0  0  0  0  0  0  0  0
   54.8989  156.7942   -6.6886 H   0  0  0  0  0  0  0  0  0  0  0  0
   53.2146  156.2965   -6.4054 H   0  0  0  0  0  0  0  0  0  0  0  0
   53.8940  154.3211   -5.2408 H   0  0  0  0  0  0  0  0  0  0  0  0
   55.2228  154.4612   -6.4100 H   0  0  0  0  0  0  0  0  0  0  0  0
   55.4226  156.4160   -2.8983 H   0  0  0  0  0  0  0  0  0  0  0  0
   56.9531  157.2538   -5.4057 H   0  0  0  0  0  0  0  0  0  0  0  0
   57.6749  156.6140   -3.9168 H   0  0  0  0  0  0  0  0  0  0  0  0
   56.8467  158.1829   -3.8980 H   0  0  0  0  0  0  0  0  0  0  0  0
   55.0810  158.9155   -5.3561 H   0  0  0  0  0  0  0  0  0  0  0  0
   54.2630  159.0366   -3.7808 H   0  0  0  0  0  0  0  0  0  0  0  0
   52.6462  158.4209   -6.1666 H   0  0  0  0  0  0  0  0  0  0  0  0
   52.6745  159.9322   -5.2899 H   0  0  0  0  0  0  0  0  0  0  0  0
   52.3587  156.9146   -4.3505 H   0  0  0  0  0  0  0  0  0  0  0  0
  1  2  1  0  0  0  0
  1  4  1  0  0  0  0
  2  8  1  0  0  0  0
  3  4  1  0  0  0  0
  3  5  1  0  0  0  0
  3  8  1  0  0  0  0
  4  6  1  0  0  0  0
  4  9  1  0  0  0  0
  6  7  1  0  0  0  0
  1 10  1  0  0  0  0
  1 11  1  0  0  0  0
  2 12  1  0  0  0  0
  2 13  1  0  0  0  0
  3 14  1  0  0  0  0
  5 15  1  0  0  0  0
  5 16  1  0  0  0  0
  5 17  1  0  0  0  0
  6 18  1  0  0  0  0
  6 19  1  0  0  0  0
  7 20  1  0  0  0  0
  7 21  1  0  0  0  0
  9 22  1  0  0  0  0
M  END
> <FRED Chemgauss4 score>
-3.449932

$$$$
C78677345	P122772396
  -OEChem-05122015083D

 18 18  0     0  0  0  0  0  0999 V2000
   56.4977  159.0076   -4.1021 C   0  0  0  0  0  0  0  0  0  0  0  0
   55.2305  158.5811   -3.7638 C   0  0  0  0  0  0  0  0  0  0  0  0
   55.9996  158.9632   -1.7458 C   0  0  0  0  0  0  0  0  0  0  0  0
   56.0692  159.0691   -0.2721 C   0  0  0  0  0  0  0  0  0  0  0  0
   54.1630  158.1523   -4.7286 C   0  0  0  0  0  0  0  0  0  0  0  0
   54.9432  158.5546   -2.4131 N   0  0  0  0  0  0  0  0  0  0  0  0
   52.5719  158.7924   -6.3175 N   0  0  0  0  0  0  0  0  0  0  0  0
   53.5532  159.2879   -5.4066 N   0  0  0  0  0  0  0  0  0  0  0  0
   57.3731  159.3956   -2.6793 S   0  0  0  0  0  0  0  0  0  0  0  0
   56.9396  159.1085   -5.0834 H   0  0  0  0  0  0  0  0  0  0  0  0
   56.4286  158.1287    0.1742 H   0  0  0  0  0  0  0  0  0  0  0  0
   56.7468  159.8765    0.0502 H   0  0  0  0  0  0  0  0  0  0  0  0
   55.0858  159.2986    0.1700 H   0  0  0  0  0  0  0  0  0  0  0  0
   54.5782  157.4864   -5.4929 H   0  0  0  0  0  0  0  0  0  0  0  0
   53.3674  157.6022   -4.2152 H   0  0  0  0  0  0  0  0  0  0  0  0
   52.4977  157.7801   -6.2198 H   0  0  0  0  0  0  0  0  0  0  0  0
   51.6608  159.1651   -6.0532 H   0  0  0  0  0  0  0  0  0  0  0  0
   54.2665  159.7970   -5.9273 H   0  0  0  0  0  0  0  0  0  0  0  0
  1  2  2  0  0  0  0
  1  9  1  0  0  0  0
  2  5  1  0  0  0  0
  2  6  1  0  0  0  0
  3  4  1  0  0  0  0
  3  6  2  0  0  0  0
  3  9  1  0  0  0  0
  5  8  1  0  0  0  0
  7  8  1  0  0  0  0
  1 10  1  0  0  0  0
  4 11  1  0  0  0  0
  4 12  1  0  0  0  0
  4 13  1  0  0  0  0
  5 14  1  0  0  0  0
  5 15  1  0  0  0  0
  7 16  1  0  0  0  0
  7 17  1  0  0  0  0
  8 18  1  0  0  0  0
M  END
> <FRED Chemgauss4 score>
-3.419032

$$$$
C34865858	P90661520
  -OEChem-05122015083D

 17 16  0     0  0  0  0  0  0999 V2000
   55.3808  155.2302   -5.5080 C   0  0  0  0  0  0  0  0  0  0  0  0
   54.3639  154.9900   -4.9156 C   0  0  0  0  0  0  0  0  0  0  0  0
   56.6249  155.5236   -6.2335 C   0  0  0  0  0  0  0  0  0  0  0  0
   53.1231  154.6930   -4.1939 C   0  0  0  0  0  0  0  0  0  0  0  0
   57.3149  156.7581   -5.6583 C   0  0  0  0  0  0  0  0  0  0  0  0
   52.7666  155.7878   -3.3006 N   0  0  0  0  0  0  0  0  0  0  0  0
   56.4322  157.9162   -5.7379 N   0  0  0  0  0  0  0  0  0  0  0  0
   56.3979  155.6805   -7.2951 H   0  0  0  0  0  0  0  0  0  0  0  0
   57.2931  154.6559   -6.1732 H   0  0  0  0  0  0  0  0  0  0  0  0
   53.2335  153.7705   -3.6143 H   0  0  0  0  0  0  0  0  0  0  0  0
   52.3082  154.5360   -4.9081 H   0  0  0  0  0  0  0  0  0  0  0  0
   58.2413  156.9685   -6.2059 H   0  0  0  0  0  0  0  0  0  0  0  0
   57.5878  156.5879   -4.6105 H   0  0  0  0  0  0  0  0  0  0  0  0
   53.5001  156.2552   -2.8104 H   0  0  0  0  0  0  0  0  0  0  0  0
   51.8061  155.9007   -3.0523 H   0  0  0  0  0  0  0  0  0  0  0  0
   55.8596  158.0173   -6.5489 H   0  0  0  0  0  0  0  0  0  0  0  0
   56.5749  158.6624   -5.0908 H   0  0  0  0  0  0  0  0  0  0  0  0
  1  2  3  0  0  0  0
  1  3  1  0  0  0  0
  2  4  1  0  0  0  0
  3  5  1  0  0  0  0
  4  6  1  0  0  0  0
  5  7  1  0  0  0  0
  3  8  1  0  0  0  0
  3  9  1  0  0  0  0
  4 10  1  0  0  0  0
  4 11  1  0  0  0  0
  5 12  1  0  0  0  0
  5 13  1  0  0  0  0
  6 14  1  0  0  0  0
  6 15  1  0  0  0  0
  7 16  1  0  0  0  0
  7 17  1  0  0  0  0
M  END
> <FRED Chemgauss4 score>
-3.418859

$$$$
C67172119	P103192712
  -OEChem-05122015083D

 23 23  0     0  0  0  0  0  0999 V2000
   55.1882  155.1314   -6.5310 C   0  0  0  0  0  0  0  0  0  0  0  0
   53.9492  156.0304   -6.5719 C   0  0  0  0  0  0  0  0  0  0  0  0
   56.0987  155.5900   -4.3348 C   0  0  0  0  0  0  0  0  0  0  0  0
   54.2515  157.4012   -4.5982 C   0  0  0  0  0  0  0  0  0  0  0  0
   55.3812  156.8129   -3.7322 C   0  0  0  0  0  0  0  0  0  0  0  0
   54.8717  156.4561   -2.3307 C   0  0  0  0  0  0  0  0  0  0  0  0
   56.3222  155.6637   -5.7759 N   0  0  0  0  0  0  0  0  0  0  0  0
   53.4101  156.4122   -5.2669 N   0  0  0  0  0  0  0  0  0  0  0  0
   53.9651  155.3785   -2.4506 O   0  0  0  0  0  0  0  0  0  0  0  0
   54.9155  154.1250   -6.1711 H   0  0  0  0  0  0  0  0  0  0  0  0
   55.5158  154.9773   -7.5720 H   0  0  0  0  0  0  0  0  0  0  0  0
   54.1979  156.9493   -7.0984 H   0  0  0  0  0  0  0  0  0  0  0  0
   53.1715  155.5356   -7.1479 H   0  0  0  0  0  0  0  0  0  0  0  0
   57.0830  155.5154   -3.8571 H   0  0  0  0  0  0  0  0  0  0  0  0
   55.5713  154.6649   -4.0730 H   0  0  0  0  0  0  0  0  0  0  0  0
   53.6374  158.1295   -4.0196 H   0  0  0  0  0  0  0  0  0  0  0  0
   54.7104  158.0161   -5.4017 H   0  0  0  0  0  0  0  0  0  0  0  0
   56.1516  157.6057   -3.5881 H   0  0  0  0  0  0  0  0  0  0  0  0
   54.3638  157.3149   -1.8988 H   0  0  0  0  0  0  0  0  0  0  0  0
   55.7091  156.1616   -1.7030 H   0  0  0  0  0  0  0  0  0  0  0  0
   57.1400  155.0880   -5.9924 H   0  0  0  0  0  0  0  0  0  0  0  0
   52.4730  156.7689   -5.3743 H   0  0  0  0  0  0  0  0  0  0  0  0
   53.6516  155.1647   -1.5544 H   0  0  0  0  0  0  0  0  0  0  0  0
  1  2  1  0  0  0  0
  1  7  1  0  0  0  0
  2  8  1  0  0  0  0
  3  5  1  0  0  0  0
  3  7  1  0  0  0  0
  4  5  1  0  0  0  0
  4  8  1  0  0  0  0
  5  6  1  0  0  0  0
  6  9  1  0  0  0  0
  1 10  1  0  0  0  0
  1 11  1  0  0  0  0
  2 12  1  0  0  0  0
  2 13  1  0  0  0  0
  3 14  1  0  0  0  0
  3 15  1  0  0  0  0
  4 16  1  0  0  0  0
  4 17  1  0  0  0  0
  5 18  1  0  0  0  0
  6 19  1  0  0  0  0
  6 20  1  0  0  0  0
  7 21  1  0  0  0  0
  8 22  1  0  0  0  0
  9 23  1  0  0  0  0
M  END
> <FRED Chemgauss4 score>
-3.390908

$$$$
C87589505	P137000350
  -OEChem-05122015083D

 15 15  0     1  0  0  0  0  0999 V2000
   56.4614  156.4287   -5.1029 C   0  0  0  0  0  0  0  0  0  0  0  0
   55.9165  157.2859   -4.4624 C   0  0  0  0  0  0  0  0  0  0  0  0
   57.2722  159.0881   -2.2750 C   0  0  0  0  0  0  0  0  0  0  0  0
   56.0892  158.7748   -0.2002 C   0  0  0  0  0  0  0  0  0  0  0  0
   55.9720  158.6419   -2.3862 C   0  0  0  0  0  0  0  0  0  0  0  0
   55.2494  158.3399   -3.6815 C   0  0  2  0  0  0  0  0  0  0  0  0
   55.2922  158.4613   -1.1975 N   0  0  0  0  0  0  0  0  0  0  0  0
   53.8689  157.9904   -3.4411 N   0  0  0  0  0  0  0  0  0  0  0  0
   57.6698  159.2952   -0.6196 S   0  0  0  0  0  0  0  0  0  0  0  0
   56.9446  155.6684   -5.6709 H   0  0  0  0  0  0  0  0  0  0  0  0
   57.9876  159.2982   -3.0577 H   0  0  0  0  0  0  0  0  0  0  0  0
   55.7722  158.7106    0.8316 H   0  0  0  0  0  0  0  0  0  0  0  0
   55.2131  159.2493   -4.2940 H   0  0  0  0  0  0  0  0  0  0  0  0
   53.3724  157.4663   -4.1398 H   0  0  0  0  0  0  0  0  0  0  0  0
   53.3776  158.4427   -2.6905 H   0  0  0  0  0  0  0  0  0  0  0  0
  1  2  3  0  0  0  0
  2  6  1  0  0  0  0
  3  5  2  0  0  0  0
  3  9  1  0  0  0  0
  4  7  2  0  0  0  0
  4  9  1  0  0  0  0
  5  6  1  0  0  0  0
  5  7  1  0  0  0  0
  6  8  1  0  0  0  0
  1 10  1  0  0  0  0
  3 11  1  0  0  0  0
  4 12  1  0  0  0  0
  6 13  1  0  0  0  0
  8 14  1  0  0  0  0
  8 15  1  0  0  0  0
M  END
> <FRED Chemgauss4 score>
-3.378916

$$$$
C85798269	P134352633
  -OEChem-05122015083D

 28 28  0     1  0  0  0  0  0999 V2000
   55.7219  158.1273   -0.9834 C   0  0  0  0  0  0  0  0  0  0  0  0
   56.6281  159.0193   -0.3791 C   0  0  0  0  0  0  0  0  0  0  0  0
   55.8940  158.3243   -2.3318 C   0  0  0  0  0  0  0  0  0  0  0  0
   57.3866  159.8367   -3.6732 C   0  0  0  0  0  0  0  0  0  0  0  0
   55.6875  154.4389   -5.3627 C   0  0  0  0  0  0  0  0  0  0  0  0
   55.6416  156.6006   -6.4102 C   0  0  0  0  0  0  0  0  0  0  0  0
   55.9531  156.4232   -4.0344 C   0  0  0  0  0  0  0  0  0  0  0  0
   55.2206  157.6758   -3.5288 C   0  0  1  0  0  0  0  0  0  0  0  0
   57.3242  159.7298   -1.2704 N   0  0  0  0  0  0  0  0  0  0  0  0
   56.8555  159.2845   -2.4486 N   0  0  0  0  0  0  0  0  0  0  0  0
   53.8246  157.3397   -3.2242 N   0  0  0  0  0  0  0  0  0  0  0  0
   55.3021  155.8411   -5.2075 N   0  0  0  0  0  0  0  0  0  0  0  0
   55.0403  157.4391   -0.5053 H   0  0  0  0  0  0  0  0  0  0  0  0
   56.8100  159.1809    0.6737 H   0  0  0  0  0  0  0  0  0  0  0  0
   56.7767  160.7022   -3.9453 H   0  0  0  0  0  0  0  0  0  0  0  0
   58.4267  160.1360   -3.5167 H   0  0  0  0  0  0  0  0  0  0  0  0
   57.3468  159.0773   -4.4591 H   0  0  0  0  0  0  0  0  0  0  0  0
   55.4312  153.8768   -4.4610 H   0  0  0  0  0  0  0  0  0  0  0  0
   56.7646  154.3596   -5.5326 H   0  0  0  0  0  0  0  0  0  0  0  0
   55.1648  153.9953   -6.2144 H   0  0  0  0  0  0  0  0  0  0  0  0
   55.3512  157.6474   -6.2879 H   0  0  0  0  0  0  0  0  0  0  0  0
   55.1181  156.1892   -7.2775 H   0  0  0  0  0  0  0  0  0  0  0  0
   56.7180  156.5534   -6.5957 H   0  0  0  0  0  0  0  0  0  0  0  0
   56.9757  156.6723   -4.3403 H   0  0  0  0  0  0  0  0  0  0  0  0
   56.0170  155.6387   -3.2729 H   0  0  0  0  0  0  0  0  0  0  0  0
   55.1988  158.4056   -4.3488 H   0  0  0  0  0  0  0  0  0  0  0  0
   53.3842  156.6464   -3.7831 H   0  0  0  0  0  0  0  0  0  0  0  0
   53.3240  157.9502   -2.6211 H   0  0  0  0  0  0  0  0  0  0  0  0
  1  2  1  0  0  0  0
  1  3  2  0  0  0  0
  2  9  2  0  0  0  0
  3  8  1  0  0  0  0
  3 10  1  0  0  0  0
  4 10  1  0  0  0  0
  5 12  1  0  0  0  0
  6 12  1  0  0  0  0
  7  8  1  0  0  0  0
  7 12  1  0  0  0  0
  8 11  1  0  0  0  0
  9 10  1  0  0  0  0
  1 13  1  0  0  0  0
  2 14  1  0  0  0  0
  4 15  1  0  0  0  0
  4 16  1  0  0  0  0
  4 17  1  0  0  0  0
  5 18  1  0  0  0  0
  5 19  1  0  0  0  0
  5 20  1  0  0  0  0
  6 21  1  0  0  0  0
  6 22  1  0  0  0  0
  6 23  1  0  0  0  0
  7 24  1  0  0  0  0
  7 25  1  0  0  0  0
  8 26  1  0  0  0  0
 11 27  1  0  0  0  0
 11 28  1  0  0  0  0
M  END
> <FRED Chemgauss4 score>
-3.347600

$$$$
C39135257	P59285826
  -OEChem-05122015083D

 19 18  0     0  0  0  0  0  0999 V2000
   56.2971  156.0840   -5.0053 C   0  0  0  0  0  0  0  0  0  0  0  0
   55.8973  157.0669   -4.0406 C   0  0  0  0  0  0  0  0  0  0  0  0
   54.7995  156.8701   -3.2528 C   0  0  0  0  0  0  0  0  0  0  0  0
   56.7261  158.3142   -3.9253 C   0  0  0  0  0  0  0  0  0  0  0  0
   56.8858  160.3567   -2.7409 C   0  0  0  0  0  0  0  0  0  0  0  0
   56.6220  155.2898   -5.7867 N   0  0  0  0  0  0  0  0  0  0  0  0
   54.4337  157.8347   -2.3282 N   0  0  0  0  0  0  0  0  0  0  0  0
   53.0050  155.4206   -2.4875 N   0  0  0  0  0  0  0  0  0  0  0  0
   54.0249  155.7200   -3.3685 N   0  0  0  0  0  0  0  0  0  0  0  0
   57.7204  158.5604   -4.5920 O   0  0  0  0  0  0  0  0  0  0  0  0
   56.1958  159.1223   -2.9640 O   0  0  0  0  0  0  0  0  0  0  0  0
   56.3783  160.9219   -1.9553 H   0  0  0  0  0  0  0  0  0  0  0  0
   56.9054  160.9368   -3.6670 H   0  0  0  0  0  0  0  0  0  0  0  0
   57.9097  160.1400   -2.4273 H   0  0  0  0  0  0  0  0  0  0  0  0
   54.9977  158.6726   -2.2603 H   0  0  0  0  0  0  0  0  0  0  0  0
   53.6255  157.7175   -1.7315 H   0  0  0  0  0  0  0  0  0  0  0  0
   53.3621  155.5115   -1.5374 H   0  0  0  0  0  0  0  0  0  0  0  0
   52.2777  156.1282   -2.5833 H   0  0  0  0  0  0  0  0  0  0  0  0
   54.2853  155.0188   -4.0519 H   0  0  0  0  0  0  0  0  0  0  0  0
  1  2  1  0  0  0  0
  1  6  3  0  0  0  0
  2  3  2  0  0  0  0
  2  4  1  0  0  0  0
  3  7  1  0  0  0  0
  3  9  1  0  0  0  0
  4 10  2  0  0  0  0
  4 11  1  0  0  0  0
  5 11  1  0  0  0  0
  8  9  1  0  0  0  0
  5 12  1  0  0  0  0
  5 13  1  0  0  0  0
  5 14  1  0  0  0  0
  7 15  1  0  0  0  0
  7 16  1  0  0  0  0
  8 17  1  0  0  0  0
  8 18  1  0  0  0  0
  9 19  1  0  0  0  0
M  END
> <FRED Chemgauss4 score>
-3.341358

$$$$
C70184805	P108186127
  -OEChem-05122015083D

 23 23  0     1  0  0  0  0  0999 V2000
   57.0429  156.8226   -6.2408 C   0  0  0  0  0  0  0  0  0  0  0  0
   56.4042  155.6163   -6.4068 C   0  0  0  0  0  0  0  0  0  0  0  0
   55.7603  156.6210   -4.5541 C   0  0  0  0  0  0  0  0  0  0  0  0
   56.1755  159.0553   -2.8018 C   0  0  0  0  0  0  0  0  0  0  0  0
   54.7046  154.3909   -5.0428 C   0  0  0  0  0  0  0  0  0  0  0  0
   55.8248  157.6753   -2.2589 C   0  0  0  0  0  0  0  0  0  0  0  0
   55.0067  156.8389   -3.2577 C   0  0  1  0  0  0  0  0  0  0  0  0
   56.6379  157.4429   -5.0855 N   0  0  0  0  0  0  0  0  0  0  0  0
   55.5862  155.5008   -5.3184 N   0  0  0  0  0  0  0  0  0  0  0  0
   53.7134  157.4317   -3.5157 N   0  0  0  0  0  0  0  0  0  0  0  0
   57.7738  157.2759   -6.8944 H   0  0  0  0  0  0  0  0  0  0  0  0
   56.4599  154.8593   -7.1766 H   0  0  0  0  0  0  0  0  0  0  0  0
   55.2729  159.6067   -3.0839 H   0  0  0  0  0  0  0  0  0  0  0  0
   56.7024  159.6368   -2.0385 H   0  0  0  0  0  0  0  0  0  0  0  0
   56.8261  158.9859   -3.6790 H   0  0  0  0  0  0  0  0  0  0  0  0
   55.2613  153.6557   -4.4558 H   0  0  0  0  0  0  0  0  0  0  0  0
   53.8347  154.7470   -4.4838 H   0  0  0  0  0  0  0  0  0  0  0  0
   54.3689  153.9530   -5.9869 H   0  0  0  0  0  0  0  0  0  0  0  0
   56.7544  157.1585   -1.9893 H   0  0  0  0  0  0  0  0  0  0  0  0
   55.2535  157.8050   -1.3308 H   0  0  0  0  0  0  0  0  0  0  0  0
   54.7926  155.8647   -2.8009 H   0  0  0  0  0  0  0  0  0  0  0  0
   53.2460  157.9157   -2.7707 H   0  0  0  0  0  0  0  0  0  0  0  0
   53.2240  157.1779   -4.3547 H   0  0  0  0  0  0  0  0  0  0  0  0
  1  2  2  0  0  0  0
  1  8  1  0  0  0  0
  2  9  1  0  0  0  0
  3  7  1  0  0  0  0
  3  8  2  0  0  0  0
  3  9  1  0  0  0  0
  4  6  1  0  0  0  0
  5  9  1  0  0  0  0
  6  7  1  0  0  0  0
  7 10  1  0  0  0  0
  1 11  1  0  0  0  0
  2 12  1  0  0  0  0
  4 13  1  0  0  0  0
  4 14  1  0  0  0  0
  4 15  1  0  0  0  0
  5 16  1  0  0  0  0
  5 17  1  0  0  0  0
  5 18  1  0  0  0  0
  6 19  1  0  0  0  0
  6 20  1  0  0  0  0
  7 21  1  0  0  0  0
 10 22  1  0  0  0  0
 10 23  1  0  0  0  0
M  END
> <FRED Chemgauss4 score>
-3.333854

$$$$
C59366433	P90271539
  -OEChem-05122015083D

 20 20  0     0  0  0  0  0  0999 V2000
   56.9164  156.9687   -6.2620 C   0  0  0  0  0  0  0  0  0  0  0  0
   58.4093  158.8068   -7.1594 C   0  0  0  0  0  0  0  0  0  0  0  0
   54.9435  157.0963   -3.6861 C   0  0  0  0  0  0  0  0  0  0  0  0
   54.7199  157.3971   -5.1586 C   0  0  0  0  0  0  0  0  0  0  0  0
   56.9946  155.6586   -6.2159 N   0  0  0  0  0  0  0  0  0  0  0  0
   58.1913  155.3369   -6.8154 N   0  0  0  0  0  0  0  0  0  0  0  0
   58.8306  156.4276   -7.2202 N   0  0  0  0  0  0  0  0  0  0  0  0
   58.0317  157.4462   -6.8730 N   0  0  0  0  0  0  0  0  0  0  0  0
   53.7432  156.6421   -3.0366 N   0  0  0  0  0  0  0  0  0  0  0  0
   55.9266  157.8314   -5.8089 N   0  0  0  0  0  0  0  0  0  0  0  0
   58.9762  159.1864   -6.3052 H   0  0  0  0  0  0  0  0  0  0  0  0
   59.0208  158.8319   -8.0657 H   0  0  0  0  0  0  0  0  0  0  0  0
   57.5085  159.4060   -7.3185 H   0  0  0  0  0  0  0  0  0  0  0  0
   55.2924  157.9822   -3.1459 H   0  0  0  0  0  0  0  0  0  0  0  0
   55.6893  156.3033   -3.5734 H   0  0  0  0  0  0  0  0  0  0  0  0
   54.3788  156.4982   -5.6813 H   0  0  0  0  0  0  0  0  0  0  0  0
   53.9708  158.1836   -5.2957 H   0  0  0  0  0  0  0  0  0  0  0  0
   52.8637  157.0727   -3.2733 H   0  0  0  0  0  0  0  0  0  0  0  0
   53.8183  156.0552   -2.2211 H   0  0  0  0  0  0  0  0  0  0  0  0
   56.0681  158.8284   -5.9490 H   0  0  0  0  0  0  0  0  0  0  0  0
  1  5  2  0  0  0  0
  1  8  1  0  0  0  0
  1 10  1  0  0  0  0
  2  8  1  0  0  0  0
  3  4  1  0  0  0  0
  3  9  1  0  0  0  0
  4 10  1  0  0  0  0
  5  6  1  0  0  0  0
  6  7  2  0  0  0  0
  7  8  1  0  0  0  0
  2 11  1  0  0  0  0
  2 12  1  0  0  0  0
  2 13  1  0  0  0  0
  3 14  1  0  0  0  0
  3 15  1  0  0  0  0
  4 16  1  0  0  0  0
  4 17  1  0  0  0  0
  9 18  1  0  0  0  0
  9 19  1  0  0  0  0
 10 20  1  0  0  0  0
M  END
> <FRED Chemgauss4 score>
-3.327583

$$$$
C88488803	P138408179
  -OEChem-05122015083D

 34 34  0     1  0  0  0  0  0999 V2000
   53.6347  159.0339   -5.5487 C   0  0  0  0  0  0  0  0  0  0  0  0
   56.7686  160.6292   -2.9602 C   0  0  0  0  0  0  0  0  0  0  0  0
   51.4181  159.7189   -8.0487 C   0  0  0  0  0  0  0  0  0  0  0  0
   50.2220  159.7112   -7.1414 C   0  0  0  0  0  0  0  0  0  0  0  0
   51.5864  160.0087   -6.5821 C   0  0  0  0  0  0  0  0  0  0  0  0
   56.6501  160.1436   -0.4829 C   0  0  0  0  0  0  0  0  0  0  0  0
   56.4986  157.7556   -4.4983 C   0  0  0  0  0  0  0  0  0  0  0  0
   54.0447  157.9632   -4.5700 C   0  0  0  0  0  0  0  0  0  0  0  0
   56.6820  159.5576   -1.8879 C   0  0  1  0  0  0  0  0  0  0  0  0
   57.8500  160.5740   -3.7975 N   0  0  0  0  0  0  0  0  0  0  0  0
   52.2567  159.0754   -5.7056 N   0  0  0  0  0  0  0  0  0  0  0  0
   55.2957  158.3698   -3.8825 N   0  0  1  0  0  0  0  0  0  0  0  0
   54.4353  159.7679   -6.1220 O   0  0  0  0  0  0  0  0  0  0  0  0
   54.0863  159.2880   -1.7834 O   0  0  0  0  0  0  0  0  0  0  0  0
   55.5269  157.2375   -1.5636 O   0  0  0  0  0  0  0  0  0  0  0  0
   55.6043  161.8218   -3.1160 S   0  0  0  0  0  0  0  0  0  0  0  0
   55.2586  158.5268   -2.1721 S   0  0  0  0  0  0  0  0  0  0  0  0
   51.7668  158.7670   -8.4304 H   0  0  0  0  0  0  0  0  0  0  0  0
   51.5216  160.5452   -8.7412 H   0  0  0  0  0  0  0  0  0  0  0  0
   49.5210  160.5326   -7.2234 H   0  0  0  0  0  0  0  0  0  0  0  0
   49.7689  158.7537   -6.9155 H   0  0  0  0  0  0  0  0  0  0  0  0
   51.7839  161.0394   -6.3085 H   0  0  0  0  0  0  0  0  0  0  0  0
   55.8034  160.8277   -0.3638 H   0  0  0  0  0  0  0  0  0  0  0  0
   56.5644  159.3667    0.2843 H   0  0  0  0  0  0  0  0  0  0  0  0
   57.5703  160.7010   -0.2772 H   0  0  0  0  0  0  0  0  0  0  0  0
   57.3982  158.0770   -3.9670 H   0  0  0  0  0  0  0  0  0  0  0  0
   56.5823  158.0566   -5.5461 H   0  0  0  0  0  0  0  0  0  0  0  0
   56.4325  156.6653   -4.4511 H   0  0  0  0  0  0  0  0  0  0  0  0
   53.2548  157.8217   -3.8265 H   0  0  0  0  0  0  0  0  0  0  0  0
   54.2159  157.0219   -5.1003 H   0  0  0  0  0  0  0  0  0  0  0  0
   57.5419  158.8812   -1.9628 H   0  0  0  0  0  0  0  0  0  0  0  0
   58.5695  159.8636   -3.7154 H   0  0  0  0  0  0  0  0  0  0  0  0
   57.9751  161.2615   -4.5332 H   0  0  0  0  0  0  0  0  0  0  0  0
   51.6908  158.4170   -5.1781 H   0  0  0  0  0  0  0  0  0  0  0  0
  1  8  1  0  0  0  0
  1 11  1  0  0  0  0
  1 13  2  0  0  0  0
  2  9  1  0  0  0  0
  2 10  1  0  0  0  0
  2 16  2  0  0  0  0
  3  4  1  0  0  0  0
  3  5  1  0  0  0  0
  4  5  1  0  0  0  0
  5 11  1  0  0  0  0
  6  9  1  0  0  0  0
  7 12  1  0  0  0  0
  8 12  1  0  0  0  0
  9 17  1  0  0  0  0
 12 17  1  0  0  0  0
 14 17  2  0  0  0  0
 15 17  2  0  0  0  0
  3 18  1  0  0  0  0
  3 19  1  0  0  0  0
  4 20  1  0  0  0  0
  4 21  1  0  0  0  0
  5 22  1  0  0  0  0
  6 23  1  0  0  0  0
  6 24  1  0  0  0  0
  6 25  1  0  0  0  0
  7 26  1  0  0  0  0
  7 27  1  0  0  0  0
  7 28  1  0  0  0  0
  8 29  1  0  0  0  0
  8 30  1  0  0  0  0
  9 31  1  0  0  0  0
 10 32  1  0  0  0  0
 10 33  1  0  0  0  0
 11 34  1  0  0  0  0
M  END
> <FRED Chemgauss4 score>
-3.327314

$$$$
C82836052	P129489593
  -OEChem-05122015083D

 19 19  0     1  0  0  0  0  0999 V2000
   55.6783  153.9490   -5.6541 C   0  0  0  0  0  0  0  0  0  0  0  0
   55.9050  155.8542   -4.8319 C   0  0  0  0  0  0  0  0  0  0  0  0
   56.3985  158.3347   -4.7840 C   0  0  0  0  0  0  0  0  0  0  0  0
   57.7804  153.7519   -7.0817 C   0  0  0  0  0  0  0  0  0  0  0  0
   55.7413  157.1534   -4.0731 C   0  0  1  0  0  0  0  0  0  0  0  0
   55.0697  154.8414   -4.8188 N   0  0  0  0  0  0  0  0  0  0  0  0
   56.9596  155.5671   -5.6413 N   0  0  0  0  0  0  0  0  0  0  0  0
   56.8376  154.3457   -6.1832 N   0  0  0  0  0  0  0  0  0  0  0  0
   54.3494  157.4420   -3.8136 N   0  0  0  0  0  0  0  0  0  0  0  0
   55.2445  152.9809   -5.8719 H   0  0  0  0  0  0  0  0  0  0  0  0
   55.9697  158.4833   -5.7811 H   0  0  0  0  0  0  0  0  0  0  0  0
   56.2524  159.2573   -4.2109 H   0  0  0  0  0  0  0  0  0  0  0  0
   57.4793  158.1947   -4.8983 H   0  0  0  0  0  0  0  0  0  0  0  0
   57.4931  154.0245   -8.1006 H   0  0  0  0  0  0  0  0  0  0  0  0
   58.7835  154.1237   -6.8550 H   0  0  0  0  0  0  0  0  0  0  0  0
   57.7643  152.6657   -6.9564 H   0  0  0  0  0  0  0  0  0  0  0  0
   56.2090  157.0546   -3.0858 H   0  0  0  0  0  0  0  0  0  0  0  0
   54.0784  158.3902   -3.6240 H   0  0  0  0  0  0  0  0  0  0  0  0
   53.7233  156.6792   -3.6270 H   0  0  0  0  0  0  0  0  0  0  0  0
  1  6  2  0  0  0  0
  1  8  1  0  0  0  0
  2  5  1  0  0  0  0
  2  6  1  0  0  0  0
  2  7  2  0  0  0  0
  3  5  1  0  0  0  0
  4  8  1  0  0  0  0
  5  9  1  0  0  0  0
  7  8  1  0  0  0  0
  1 10  1  0  0  0  0
  3 11  1  0  0  0  0
  3 12  1  0  0  0  0
  3 13  1  0  0  0  0
  4 14  1  0  0  0  0
  4 15  1  0  0  0  0
  4 16  1  0  0  0  0
  5 17  1  0  0  0  0
  9 18  1  0  0  0  0
  9 19  1  0  0  0  0
M  END
> <FRED Chemgauss4 score>
-3.322818

$$$$
C49474209	P89064106
  -OEChem-05122015083D

 19 19  0     0  0  0  0  0  0999 V2000
   55.2536  158.4290   -2.7655 C   0  0  0  0  0  0  0  0  0  0  0  0
   53.8643  158.6095   -5.0967 C   0  0  0  0  0  0  0  0  0  0  0  0
   56.7550  159.5657    0.3896 C   0  0  0  0  0  0  0  0  0  0  0  0
   56.0780  158.3533   -1.5063 C   0  0  0  0  0  0  0  0  0  0  0  0
   54.0003  158.0762   -2.7000 N   0  0  0  0  0  0  0  0  0  0  0  0
   53.1526  158.6748   -6.1873 N   0  0  0  0  0  0  0  0  0  0  0  0
   55.8899  158.8760   -3.9023 N   0  0  0  0  0  0  0  0  0  0  0  0
   53.3350  158.1783   -3.8883 N   0  0  0  0  0  0  0  0  0  0  0  0
   55.1979  158.9615   -5.0504 N   0  0  0  0  0  0  0  0  0  0  0  0
   55.9919  159.5814   -0.8128 O   0  0  0  0  0  0  0  0  0  0  0  0
   56.6617  160.5307    0.8938 H   0  0  0  0  0  0  0  0  0  0  0  0
   57.8033  159.3653    0.1544 H   0  0  0  0  0  0  0  0  0  0  0  0
   56.3731  158.7775    1.0428 H   0  0  0  0  0  0  0  0  0  0  0  0
   57.1148  158.1488   -1.7586 H   0  0  0  0  0  0  0  0  0  0  0  0
   55.6903  157.5585   -0.8755 H   0  0  0  0  0  0  0  0  0  0  0  0
   52.2038  158.3658   -5.9739 H   0  0  0  0  0  0  0  0  0  0  0  0
   56.8686  159.1438   -3.9073 H   0  0  0  0  0  0  0  0  0  0  0  0
   52.3556  157.9074   -3.8655 H   0  0  0  0  0  0  0  0  0  0  0  0
   55.6856  159.2913   -5.8768 H   0  0  0  0  0  0  0  0  0  0  0  0
  1  4  1  0  0  0  0
  1  5  2  0  0  0  0
  1  7  1  0  0  0  0
  2  6  2  0  0  0  0
  2  8  1  0  0  0  0
  2  9  1  0  0  0  0
  3 10  1  0  0  0  0
  4 10  1  0  0  0  0
  5  8  1  0  0  0  0
  7  9  1  0  0  0  0
  3 11  1  0  0  0  0
  3 12  1  0  0  0  0
  3 13  1  0  0  0  0
  4 14  1  0  0  0  0
  4 15  1  0  0  0  0
  6 16  1  0  0  0  0
  7 17  1  0  0  0  0
  8 18  1  0  0  0  0
  9 19  1  0  0  0  0
M  END
> <FRED Chemgauss4 score>
-3.302197

$$$$
C84175605	P131725011
  -OEChem-05122015083D

 22 22  0     0  0  0  0  0  0999 V2000
   54.5375  155.5558   -5.9465 C   0  0  0  0  0  0  0  0  0  0  0  0
   55.1169  155.2720   -4.5926 C   0  0  0  0  0  0  0  0  0  0  0  0
   55.4258  156.5723   -5.2829 C   0  0  0  0  0  0  0  0  0  0  0  0
   55.8900  158.8207   -4.5830 C   0  0  0  0  0  0  0  0  0  0  0  0
   56.6864  158.5738   -3.3160 C   0  0  0  0  0  0  0  0  0  0  0  0
   54.9825  157.0896   -1.9213 N   0  0  0  0  0  0  0  0  0  0  0  0
   54.8681  157.8297   -4.7830 N   0  0  0  0  0  0  0  0  0  0  0  0
   56.5564  158.7249   -0.7107 O   0  0  0  0  0  0  0  0  0  0  0  0
   54.6401  159.6338   -2.0845 O   0  0  0  0  0  0  0  0  0  0  0  0
   55.6804  158.6440   -1.8666 S   0  0  0  0  0  0  0  0  0  0  0  0
   54.9261  154.9959   -6.7885 H   0  0  0  0  0  0  0  0  0  0  0  0
   53.4785  155.7758   -6.0072 H   0  0  0  0  0  0  0  0  0  0  0  0
   54.4472  155.3002   -3.7414 H   0  0  0  0  0  0  0  0  0  0  0  0
   55.8920  154.5182   -4.5263 H   0  0  0  0  0  0  0  0  0  0  0  0
   56.4273  156.6758   -5.6884 H   0  0  0  0  0  0  0  0  0  0  0  0
   55.4017  159.8000   -4.5662 H   0  0  0  0  0  0  0  0  0  0  0  0
   56.5488  158.7786   -5.4557 H   0  0  0  0  0  0  0  0  0  0  0  0
   57.4543  159.3434   -3.1929 H   0  0  0  0  0  0  0  0  0  0  0  0
   57.1687  157.5917   -3.3240 H   0  0  0  0  0  0  0  0  0  0  0  0
   55.2901  156.4022   -1.2225 H   0  0  0  0  0  0  0  0  0  0  0  0
   53.9851  157.0213   -2.1582 H   0  0  0  0  0  0  0  0  0  0  0  0
   54.1749  158.1669   -5.4603 H   0  0  0  0  0  0  0  0  0  0  0  0
  1  2  1  0  0  0  0
  1  3  1  0  0  0  0
  2  3  1  0  0  0  0
  3  7  1  0  0  0  0
  4  5  1  0  0  0  0
  4  7  1  0  0  0  0
  5 10  1  0  0  0  0
  6 10  1  0  0  0  0
  8 10  2  0  0  0  0
  9 10  2  0  0  0  0
  1 11  1  0  0  0  0
  1 12  1  0  0  0  0
  2 13  1  0  0  0  0
  2 14  1  0  0  0  0
  3 15  1  0  0  0  0
  4 16  1  0  0  0  0
  4 17  1  0  0  0  0
  5 18  1  0  0  0  0
  5 19  1  0  0  0  0
  6 20  1  0  0  0  0
  6 21  1  0  0  0  0
  7 22  1  0  0  0  0
M  END
> <FRED Chemgauss4 score>
-3.289983

$$$$
C31992616	P138009250
  -OEChem-05122015083D

 20 20  0     1  0  0  0  0  0999 V2000
   54.4330  156.5289   -3.4141 C   0  0  0  0  0  0  0  0  0  0  0  0
   55.0796  156.6251   -5.6286 C   0  0  0  0  0  0  0  0  0  0  0  0
   53.5882  155.4997   -4.1120 C   0  0  0  0  0  0  0  0  0  0  0  0
   53.9279  155.6553   -5.5869 C   0  0  1  0  0  0  0  0  0  0  0  0
   55.7236  159.4555   -4.1349 C   0  0  0  0  0  0  0  0  0  0  0  0
   56.2814  158.0795   -4.0008 C   0  0  0  0  0  0  0  0  0  0  0  0
   55.2903  157.0774   -4.3430 N   0  0  0  0  0  0  0  0  0  0  0  0
   52.8660  156.2435   -6.3534 N   0  0  0  0  0  0  0  0  0  0  0  0
   54.3531  156.7854   -2.2207 O   0  0  0  0  0  0  0  0  0  0  0  0
   55.6520  156.9783   -6.6509 O   0  0  0  0  0  0  0  0  0  0  0  0
   53.8690  154.5058   -3.7487 H   0  0  0  0  0  0  0  0  0  0  0  0
   52.5301  155.6689   -3.8886 H   0  0  0  0  0  0  0  0  0  0  0  0
   54.2406  154.7048   -6.0245 H   0  0  0  0  0  0  0  0  0  0  0  0
   55.4008  159.6478   -5.1638 H   0  0  0  0  0  0  0  0  0  0  0  0
   54.8752  159.6004   -3.4572 H   0  0  0  0  0  0  0  0  0  0  0  0
   56.4922  160.1944   -3.8782 H   0  0  0  0  0  0  0  0  0  0  0  0
   56.6018  157.8942   -2.9711 H   0  0  0  0  0  0  0  0  0  0  0  0
   57.1384  157.9416   -4.6667 H   0  0  0  0  0  0  0  0  0  0  0  0
   51.9316  155.9377   -6.1786 H   0  0  0  0  0  0  0  0  0  0  0  0
   53.1069  156.7772   -7.1623 H   0  0  0  0  0  0  0  0  0  0  0  0
  1  3  1  0  0  0  0
  1  7  1  0  0  0  0
  1  9  2  0  0  0  0
  2  4  1  0  0  0  0
  2  7  1  0  0  0  0
  2 10  2  0  0  0  0
  3  4  1  0  0  0  0
  4  8  1  0  0  0  0
  5  6  1  0  0  0  0
  6  7  1  0  0  0  0
  3 11  1  0  0  0  0
  3 12  1  0  0  0  0
  4 13  1  0  0  0  0
  5 14  1  0  0  0  0
  5 15  1  0  0  0  0
  5 16  1  0  0  0  0
  6 17  1  0  0  0  0
  6 18  1  0  0  0  0
  8 19  1  0  0  0  0
  8 20  1  0  0  0  0
M  END
> <FRED Chemgauss4 score>
-3.280520

$$$$
C85169106	P133261548
  -OEChem-05122015083D

 29 30  0     1  0  0  0  0  0999 V2000
   57.2665  156.9649   -4.9132 C   0  0  0  0  0  0  0  0  0  0  0  0
   56.1917  155.9371   -6.4360 C   0  0  0  0  0  0  0  0  0  0  0  0
   56.0053  157.5126   -4.9064 C   0  0  0  0  0  0  0  0  0  0  0  0
   55.2134  159.6669   -1.9095 C   0  0  0  0  0  0  0  0  0  0  0  0
   55.6407  160.6807   -2.9679 C   0  0  0  0  0  0  0  0  0  0  0  0
   55.3868  158.6062   -4.0590 C   0  0  1  0  0  0  0  0  0  0  0  0
   55.4434  158.3018   -2.5540 C   0  0  2  0  0  0  0  0  0  0  0  0
   53.9550  157.0459   -6.2844 C   0  0  0  0  0  0  0  0  0  0  0  0
   55.9370  160.6068   -5.3705 C   0  0  0  0  0  0  0  0  0  0  0  0
   57.3761  155.9850   -5.8678 N   0  0  0  0  0  0  0  0  0  0  0  0
   55.3284  156.8444   -5.8875 N   0  0  0  0  0  0  0  0  0  0  0  0
   56.1132  159.8911   -4.1119 N   0  0  1  0  0  0  0  0  0  0  0  0
   54.4634  157.3179   -2.1125 N   0  0  0  0  0  0  0  0  0  0  0  0
   58.1028  157.2247   -4.2802 H   0  0  0  0  0  0  0  0  0  0  0  0
   55.9038  155.2739   -7.2403 H   0  0  0  0  0  0  0  0  0  0  0  0
   55.7927  159.7681   -0.9853 H   0  0  0  0  0  0  0  0  0  0  0  0
   54.1570  159.8241   -1.6578 H   0  0  0  0  0  0  0  0  0  0  0  0
   54.7800  161.3110   -3.2250 H   0  0  0  0  0  0  0  0  0  0  0  0
   56.4375  161.3328   -2.5956 H   0  0  0  0  0  0  0  0  0  0  0  0
   54.3269  158.7477   -4.3796 H   0  0  0  0  0  0  0  0  0  0  0  0
   56.4478  157.9442   -2.2709 H   0  0  0  0  0  0  0  0  0  0  0  0
   53.3291  156.3823   -5.6819 H   0  0  0  0  0  0  0  0  0  0  0  0
   53.6770  158.0901   -6.1169 H   0  0  0  0  0  0  0  0  0  0  0  0
   53.8482  156.8130   -7.3476 H   0  0  0  0  0  0  0  0  0  0  0  0
   56.2964  159.9967   -6.2032 H   0  0  0  0  0  0  0  0  0  0  0  0
   56.4984  161.5449   -5.3536 H   0  0  0  0  0  0  0  0  0  0  0  0
   54.8797  160.8340   -5.5314 H   0  0  0  0  0  0  0  0  0  0  0  0
   54.1516  157.3530   -1.1641 H   0  0  0  0  0  0  0  0  0  0  0  0
   54.2899  156.5271   -2.6979 H   0  0  0  0  0  0  0  0  0  0  0  0
  1  3  2  0  0  0  0
  1 10  1  0  0  0  0
  2 10  2  0  0  0  0
  2 11  1  0  0  0  0
  3  6  1  0  0  0  0
  3 11  1  0  0  0  0
  4  5  1  0  0  0  0
  4  7  1  0  0  0  0
  5 12  1  0  0  0  0
  6  7  1  0  0  0  0
  6 12  1  0  0  0  0
  7 13  1  0  0  0  0
  8 11  1  0  0  0  0
  9 12  1  0  0  0  0
  1 14  1  0  0  0  0
  2 15  1  0  0  0  0
  4 16  1  0  0  0  0
  4 17  1  0  0  0  0
  5 18  1  0  0  0  0
  5 19  1  0  0  0  0
  6 20  1  0  0  0  0
  7 21  1  0  0  0  0
  8 22  1  0  0  0  0
  8 23  1  0  0  0  0
  8 24  1  0  0  0  0
  9 25  1  0  0  0  0
  9 26  1  0  0  0  0
  9 27  1  0  0  0  0
 13 28  1  0  0  0  0
 13 29  1  0  0  0  0
M  END
> <FRED Chemgauss4 score>
-3.262754

$$$$
C72206524	P112174964
  -OEChem-05122015083D

 21 22  0     1  0  0  0  0  0999 V2000
   57.4697  157.4307   -4.6847 C   0  0  0  0  0  0  0  0  0  0  0  0
   57.2190  156.4105   -5.5721 C   0  0  0  0  0  0  0  0  0  0  0  0
   55.6222  156.5648   -4.0386 C   0  0  0  0  0  0  0  0  0  0  0  0
   54.2543  154.1890   -4.8405 C   0  0  0  0  0  0  0  0  0  0  0  0
   53.4571  155.3081   -4.1656 C   0  0  0  0  0  0  0  0  0  0  0  0
   55.3247  154.7730   -5.7614 C   0  0  0  0  0  0  0  0  0  0  0  0
   54.3781  156.1848   -3.2990 C   0  0  2  0  0  0  0  0  0  0  0  0
   56.4821  157.5180   -3.7342 N   0  0  0  0  0  0  0  0  0  0  0  0
   56.0461  155.8663   -5.1432 N   0  0  0  0  0  0  0  0  0  0  0  0
   53.6435  157.3683   -2.8550 N   0  0  0  0  0  0  0  0  0  0  0  0
   58.3108  158.1085   -4.6821 H   0  0  0  0  0  0  0  0  0  0  0  0
   57.7534  156.0460   -6.4383 H   0  0  0  0  0  0  0  0  0  0  0  0
   54.7266  153.5651   -4.0712 H   0  0  0  0  0  0  0  0  0  0  0  0
   53.5855  153.5400   -5.4163 H   0  0  0  0  0  0  0  0  0  0  0  0
   52.9655  155.9111   -4.9415 H   0  0  0  0  0  0  0  0  0  0  0  0
   52.6619  154.8744   -3.5469 H   0  0  0  0  0  0  0  0  0  0  0  0
   56.0498  154.0030   -6.0450 H   0  0  0  0  0  0  0  0  0  0  0  0
   54.8680  155.1779   -6.6718 H   0  0  0  0  0  0  0  0  0  0  0  0
   54.6784  155.6105   -2.4135 H   0  0  0  0  0  0  0  0  0  0  0  0
   54.1690  158.1676   -2.5770 H   0  0  0  0  0  0  0  0  0  0  0  0
   52.6731  157.2676   -2.6535 H   0  0  0  0  0  0  0  0  0  0  0  0
  1  2  2  0  0  0  0
  1  8  1  0  0  0  0
  2  9  1  0  0  0  0
  3  7  1  0  0  0  0
  3  8  2  0  0  0  0
  3  9  1  0  0  0  0
  4  5  1  0  0  0  0
  4  6  1  0  0  0  0
  5  7  1  0  0  0  0
  6  9  1  0  0  0  0
  7 10  1  0  0  0  0
  1 11  1  0  0  0  0
  2 12  1  0  0  0  0
  4 13  1  0  0  0  0
  4 14  1  0  0  0  0
  5 15  1  0  0  0  0
  5 16  1  0  0  0  0
  6 17  1  0  0  0  0
  6 18  1  0  0  0  0
  7 19  1  0  0  0  0
 10 20  1  0  0  0  0
 10 21  1  0  0  0  0
M  END
> <FRED Chemgauss4 score>
-3.260370

$$$$
C19271336	P28481797
  -OEChem-05122015083D

 17 17  0     0  0  0  0  0  0999 V2000
   56.8230  159.2471   -2.2900 C   0  0  0  0  0  0  0  0  0  0  0  0
   55.7357  158.9026   -1.5177 C   0  0  0  0  0  0  0  0  0  0  0  0
   56.1250  157.8009   -3.9180 C   0  0  0  0  0  0  0  0  0  0  0  0
   55.0380  157.4557   -3.1455 C   0  0  0  0  0  0  0  0  0  0  0  0
   54.0503  156.4549   -3.6351 C   0  0  0  0  0  0  0  0  0  0  0  0
   57.0372  158.7025   -3.5041 N   0  0  0  0  0  0  0  0  0  0  0  0
   54.8237  158.0006   -1.9315 N   0  0  0  0  0  0  0  0  0  0  0  0
   52.2438  155.9806   -5.0413 N   0  0  0  0  0  0  0  0  0  0  0  0
   53.1734  156.9953   -4.6440 N   0  0  0  0  0  0  0  0  0  0  0  0
   57.5555  159.9718   -1.9566 H   0  0  0  0  0  0  0  0  0  0  0  0
   55.5642  159.3408   -0.5423 H   0  0  0  0  0  0  0  0  0  0  0  0
   56.3036  157.3673   -4.8950 H   0  0  0  0  0  0  0  0  0  0  0  0
   54.5530  155.5796   -4.0720 H   0  0  0  0  0  0  0  0  0  0  0  0
   53.4156  156.0791   -2.8195 H   0  0  0  0  0  0  0  0  0  0  0  0
   52.3769  155.7706   -6.0302 H   0  0  0  0  0  0  0  0  0  0  0  0
   52.4536  155.1168   -4.5426 H   0  0  0  0  0  0  0  0  0  0  0  0
   52.6472  157.7899   -4.2687 H   0  0  0  0  0  0  0  0  0  0  0  0
  1  2  1  0  0  0  0
  1  6  2  0  0  0  0
  2  7  2  0  0  0  0
  3  4  2  0  0  0  0
  3  6  1  0  0  0  0
  4  5  1  0  0  0  0
  4  7  1  0  0  0  0
  5  9  1  0  0  0  0
  8  9  1  0  0  0  0
  1 10  1  0  0  0  0
  2 11  1  0  0  0  0
  3 12  1  0  0  0  0
  5 13  1  0  0  0  0
  5 14  1  0  0  0  0
  8 15  1  0  0  0  0
  8 16  1  0  0  0  0
  9 17  1  0  0  0  0
M  END
> <FRED Chemgauss4 score>
-3.174550

$$$$
C40448188	P61401681
  -OEChem-05122015083D

 16 16  0     0  0  0  0  0  0999 V2000
   53.7037  156.1680   -3.2393 C   0  0  0  0  0  0  0  0  0  0  0  0
   55.6890  152.5532   -7.8361 C   0  0  0  0  0  0  0  0  0  0  0  0
   56.2478  152.9643   -6.6461 C   0  0  0  0  0  0  0  0  0  0  0  0
   53.7994  153.7510   -7.3627 C   0  0  0  0  0  0  0  0  0  0  0  0
   54.3577  154.1616   -6.1723 C   0  0  0  0  0  0  0  0  0  0  0  0
   53.6418  155.0357   -5.2626 C   0  0  0  0  0  0  0  0  0  0  0  0
   53.2172  156.8619   -2.4466 N   0  0  0  0  0  0  0  0  0  0  0  0
   54.4548  152.9392   -8.2159 N   0  0  0  0  0  0  0  0  0  0  0  0
   55.5921  153.7758   -5.7927 N   0  0  0  0  0  0  0  0  0  0  0  0
   54.2755  155.3653   -4.1488 N   0  0  0  0  0  0  0  0  0  0  0  0
   52.3494  155.5073   -5.5415 N   0  0  0  0  0  0  0  0  0  0  0  0
   56.2159  151.9007   -8.5213 H   0  0  0  0  0  0  0  0  0  0  0  0
   57.2406  152.6552   -6.3426 H   0  0  0  0  0  0  0  0  0  0  0  0
   52.8079  154.0575   -7.6756 H   0  0  0  0  0  0  0  0  0  0  0  0
   51.8379  155.2478   -6.3780 H   0  0  0  0  0  0  0  0  0  0  0  0
   51.8548  156.1007   -4.8848 H   0  0  0  0  0  0  0  0  0  0  0  0
  1  7  3  0  0  0  0
  1 10  1  0  0  0  0
  2  3  1  0  0  0  0
  2  8  2  0  0  0  0
  3  9  2  0  0  0  0
  4  5  2  0  0  0  0
  4  8  1  0  0  0  0
  5  6  1  0  0  0  0
  5  9  1  0  0  0  0
  6 10  2  0  0  0  0
  6 11  1  0  0  0  0
  2 12  1  0  0  0  0
  3 13  1  0  0  0  0
  4 14  1  0  0  0  0
 11 15  1  0  0  0  0
 11 16  1  0  0  0  0
M  END
> <FRED Chemgauss4 score>
-3.166670

$$$$
C83636283	P130840320
  -OEChem-05122015083D

 17 17  0     0  0  0  0  0  0999 V2000
   55.5292  153.7446   -6.0115 C   0  0  0  0  0  0  0  0  0  0  0  0
   54.8621  156.1043   -3.2060 C   0  0  0  0  0  0  0  0  0  0  0  0
   53.4013  155.4639   -4.5452 C   0  0  0  0  0  0  0  0  0  0  0  0
   53.3237  156.2147   -3.2002 C   0  0  0  0  0  0  0  0  0  0  0  0
   55.6834  154.9181   -5.1537 C   0  0  0  0  0  0  0  0  0  0  0  0
   55.4093  152.8144   -6.6947 N   0  0  0  0  0  0  0  0  0  0  0  0
   54.7003  154.9070   -4.0762 N   0  0  0  0  0  0  0  0  0  0  0  0
   52.9208  157.5967   -3.4259 N   0  0  0  0  0  0  0  0  0  0  0  0
   55.4140  156.9254   -3.6610 H   0  0  0  0  0  0  0  0  0  0  0  0
   55.2771  155.9118   -2.2142 H   0  0  0  0  0  0  0  0  0  0  0  0
   52.5963  154.7365   -4.6718 H   0  0  0  0  0  0  0  0  0  0  0  0
   53.4666  156.0712   -5.4466 H   0  0  0  0  0  0  0  0  0  0  0  0
   52.7979  155.7037   -2.3829 H   0  0  0  0  0  0  0  0  0  0  0  0
   56.6762  154.9437   -4.6954 H   0  0  0  0  0  0  0  0  0  0  0  0
   55.5416  155.8423   -5.7211 H   0  0  0  0  0  0  0  0  0  0  0  0
   53.3359  158.3017   -2.8586 H   0  0  0  0  0  0  0  0  0  0  0  0
   52.1126  157.7612   -3.9835 H   0  0  0  0  0  0  0  0  0  0  0  0
  1  5  1  0  0  0  0
  1  6  3  0  0  0  0
  2  4  1  0  0  0  0
  2  7  1  0  0  0  0
  3  4  1  0  0  0  0
  3  7  1  0  0  0  0
  4  8  1  0  0  0  0
  5  7  1  0  0  0  0
  2  9  1  0  0  0  0
  2 10  1  0  0  0  0
  3 11  1  0  0  0  0
  3 12  1  0  0  0  0
  4 13  1  0  0  0  0
  5 14  1  0  0  0  0
  5 15  1  0  0  0  0
  8 16  1  0  0  0  0
  8 17  1  0  0  0  0
M  END
> <FRED Chemgauss4 score>
-3.161083

$$$$
C86576571	P135535140
  -OEChem-05122015083D

 27 27  0     1  0  0  0  0  0999 V2000
   57.1308  157.0628   -5.8051 C   0  0  0  0  0  0  0  0  0  0  0  0
   58.1878  156.3196   -6.3639 C   0  0  0  0  0  0  0  0  0  0  0  0
   56.1201  156.1484   -5.6358 C   0  0  0  0  0  0  0  0  0  0  0  0
   53.2678  155.7592   -3.0158 C   0  0  0  0  0  0  0  0  0  0  0  0
   55.9262  153.6893   -6.1158 C   0  0  0  0  0  0  0  0  0  0  0  0
   55.6709  156.8055   -1.5770 C   0  0  0  0  0  0  0  0  0  0  0  0
   54.7119  156.3056   -5.0785 C   0  0  1  0  0  0  0  0  0  0  0  0
   54.6711  156.0268   -3.5561 C   0  0  1  0  0  0  0  0  0  0  0  0
   57.8774  155.0322   -6.5379 N   0  0  0  0  0  0  0  0  0  0  0  0
   56.6140  154.9593   -6.0857 N   0  0  0  0  0  0  0  0  0  0  0  0
   54.1824  157.6352   -5.4011 N   0  0  0  0  0  0  0  0  0  0  0  0
   55.1831  157.1671   -2.8577 O   0  0  0  0  0  0  0  0  0  0  0  0
   57.1080  158.1147   -5.5604 H   0  0  0  0  0  0  0  0  0  0  0  0
   59.1712  156.6627   -6.6516 H   0  0  0  0  0  0  0  0  0  0  0  0
   52.5780  156.5754   -3.2480 H   0  0  0  0  0  0  0  0  0  0  0  0
   53.2874  155.6121   -1.9303 H   0  0  0  0  0  0  0  0  0  0  0  0
   52.8627  154.8380   -3.4496 H   0  0  0  0  0  0  0  0  0  0  0  0
   55.4120  153.6069   -7.0769 H   0  0  0  0  0  0  0  0  0  0  0  0
   56.6519  152.8795   -5.9997 H   0  0  0  0  0  0  0  0  0  0  0  0
   55.2082  153.6476   -5.2920 H   0  0  0  0  0  0  0  0  0  0  0  0
   56.0543  157.6934   -1.0684 H   0  0  0  0  0  0  0  0  0  0  0  0
   56.4653  156.0628   -1.6851 H   0  0  0  0  0  0  0  0  0  0  0  0
   54.8526  156.3784   -0.9925 H   0  0  0  0  0  0  0  0  0  0  0  0
   54.0669  155.5678   -5.5744 H   0  0  0  0  0  0  0  0  0  0  0  0
   55.3127  155.1781   -3.2931 H   0  0  0  0  0  0  0  0  0  0  0  0
   53.4312  157.9799   -4.8494 H   0  0  0  0  0  0  0  0  0  0  0  0
   54.4506  158.0418   -6.2675 H   0  0  0  0  0  0  0  0  0  0  0  0
  1  2  1  0  0  0  0
  1  3  2  0  0  0  0
  2  9  2  0  0  0  0
  3  7  1  0  0  0  0
  3 10  1  0  0  0  0
  4  8  1  0  0  0  0
  5 10  1  0  0  0  0
  6 12  1  0  0  0  0
  7  8  1  0  0  0  0
  7 11  1  0  0  0  0
  8 12  1  0  0  0  0
  9 10  1  0  0  0  0
  1 13  1  0  0  0  0
  2 14  1  0  0  0  0
  4 15  1  0  0  0  0
  4 16  1  0  0  0  0
  4 17  1  0  0  0  0
  5 18  1  0  0  0  0
  5 19  1  0  0  0  0
  5 20  1  0  0  0  0
  6 21  1  0  0  0  0
  6 22  1  0  0  0  0
  6 23  1  0  0  0  0
  7 24  1  0  0  0  0
  8 25  1  0  0  0  0
 11 26  1  0  0  0  0
 11 27  1  0  0  0  0
M  END
> <FRED Chemgauss4 score>
-3.132536

$$$$
C54956955	P82741422
  -OEChem-05122015083D

 23 24  0     1  0  0  0  0  0999 V2000
   54.7569  156.8027   -6.3601 C   0  0  0  0  0  0  0  0  0  0  0  0
   53.9385  155.7106   -3.8138 C   0  0  0  0  0  0  0  0  0  0  0  0
   53.9257  157.6037   -5.3886 C   0  0  0  0  0  0  0  0  0  0  0  0
   56.7303  153.6015   -6.0523 C   0  0  0  0  0  0  0  0  0  0  0  0
   56.3899  154.9890   -6.5717 C   0  0  0  0  0  0  0  0  0  0  0  0
   55.8327  154.0882   -3.9016 C   0  0  0  0  0  0  0  0  0  0  0  0
   55.3570  155.4842   -4.3333 C   0  0  1  0  0  0  0  0  0  0  0  0
   53.2544  156.7010   -4.4888 N   0  0  0  0  0  0  0  0  0  0  0  0
   57.0251  153.6458   -4.6212 N   0  0  0  0  0  0  0  0  0  0  0  0
   55.3530  155.6651   -5.7941 N   0  0  0  0  0  0  0  0  0  0  0  0
   54.9719  157.2197   -7.4981 O   0  0  0  0  0  0  0  0  0  0  0  0
   53.4845  155.1474   -2.8197 O   0  0  0  0  0  0  0  0  0  0  0  0
   54.5703  158.2745   -4.8134 H   0  0  0  0  0  0  0  0  0  0  0  0
   53.1655  158.1745   -5.9281 H   0  0  0  0  0  0  0  0  0  0  0  0
   55.9045  152.9062   -6.2483 H   0  0  0  0  0  0  0  0  0  0  0  0
   57.6053  153.2189   -6.5886 H   0  0  0  0  0  0  0  0  0  0  0  0
   57.2786  155.6326   -6.5401 H   0  0  0  0  0  0  0  0  0  0  0  0
   56.0735  154.9333   -7.6196 H   0  0  0  0  0  0  0  0  0  0  0  0
   56.0520  154.0996   -2.8272 H   0  0  0  0  0  0  0  0  0  0  0  0
   55.0339  153.3468   -4.0407 H   0  0  0  0  0  0  0  0  0  0  0  0
   56.0107  156.2581   -3.9112 H   0  0  0  0  0  0  0  0  0  0  0  0
   52.2533  156.7958   -4.3477 H   0  0  0  0  0  0  0  0  0  0  0  0
   57.2813  152.7118   -4.3022 H   0  0  0  0  0  0  0  0  0  0  0  0
  1  3  1  0  0  0  0
  1 10  1  0  0  0  0
  1 11  2  0  0  0  0
  2  7  1  0  0  0  0
  2  8  1  0  0  0  0
  2 12  2  0  0  0  0
  3  8  1  0  0  0  0
  4  5  1  0  0  0  0
  4  9  1  0  0  0  0
  5 10  1  0  0  0  0
  6  7  1  0  0  0  0
  6  9  1  0  0  0  0
  7 10  1  0  0  0  0
  3 13  1  0  0  0  0
  3 14  1  0  0  0  0
  4 15  1  0  0  0  0
  4 16  1  0  0  0  0
  5 17  1  0  0  0  0
  5 18  1  0  0  0  0
  6 19  1  0  0  0  0
  6 20  1  0  0  0  0
  7 21  1  0  0  0  0
  8 22  1  0  0  0  0
  9 23  1  0  0  0  0
M  END
> <FRED Chemgauss4 score>
-3.108004

$$$$
C83945111	P131322502
  -OEChem-05122015083D

 18 18  0     1  0  0  0  0  0999 V2000
   54.8413  161.3526   -5.1917 C   0  0  0  0  0  0  0  0  0  0  0  0
   54.8475  160.2345   -4.7536 C   0  0  0  0  0  0  0  0  0  0  0  0
   57.2567  158.3600   -4.5889 C   0  0  0  0  0  0  0  0  0  0  0  0
   55.6149  156.8425   -5.4755 C   0  0  0  0  0  0  0  0  0  0  0  0
   58.2312  157.5331   -5.1238 C   0  0  0  0  0  0  0  0  0  0  0  0
   56.6629  156.0835   -5.9709 C   0  0  0  0  0  0  0  0  0  0  0  0
   55.9260  158.0011   -4.7725 C   0  0  0  0  0  0  0  0  0  0  0  0
   54.8369  158.8548   -4.2172 C   0  0  2  0  0  0  0  0  0  0  0  0
   57.9677  156.4000   -5.8125 N   0  0  0  0  0  0  0  0  0  0  0  0
   53.5247  158.2664   -4.4219 N   0  0  0  0  0  0  0  0  0  0  0  0
   54.8359  162.3441   -5.5802 H   0  0  0  0  0  0  0  0  0  0  0  0
   57.5324  159.2569   -4.0446 H   0  0  0  0  0  0  0  0  0  0  0  0
   54.5868  156.5363   -5.6354 H   0  0  0  0  0  0  0  0  0  0  0  0
   59.2842  157.7680   -5.0072 H   0  0  0  0  0  0  0  0  0  0  0  0
   56.4731  155.1709   -6.5262 H   0  0  0  0  0  0  0  0  0  0  0  0
   54.9326  158.9307   -3.1194 H   0  0  0  0  0  0  0  0  0  0  0  0
   52.7255  158.8684   -4.4117 H   0  0  0  0  0  0  0  0  0  0  0  0
   53.4339  157.2716   -4.3631 H   0  0  0  0  0  0  0  0  0  0  0  0
  1  2  3  0  0  0  0
  2  8  1  0  0  0  0
  3  5  2  0  0  0  0
  3  7  1  0  0  0  0
  4  6  1  0  0  0  0
  4  7  2  0  0  0  0
  5  9  1  0  0  0  0
  6  9  2  0  0  0  0
  7  8  1  0  0  0  0
  8 10  1  0  0  0  0
  1 11  1  0  0  0  0
  3 12  1  0  0  0  0
  4 13  1  0  0  0  0
  5 14  1  0  0  0  0
  6 15  1  0  0  0  0
  8 16  1  0  0  0  0
 10 17  1  0  0  0  0
 10 18  1  0  0  0  0
M  END
> <FRED Chemgauss4 score>
-3.056478

$$$$
C19171869	P28313982
  -OEChem-05122015083D

 19 18  0     0  0  0  0  0  0999 V2000
   55.7637  158.1562   -1.7291 C   0  0  0  0  0  0  0  0  0  0  0  0
   53.7852  155.5845   -4.5842 C   0  0  0  0  0  0  0  0  0  0  0  0
   55.0652  156.8909   -2.1794 C   0  0  0  0  0  0  0  0  0  0  0  0
   53.1599  156.0866   -3.2956 C   0  0  0  0  0  0  0  0  0  0  0  0
   52.3619  156.5508   -6.1682 N   0  0  0  0  0  0  0  0  0  0  0  0
   53.6738  156.6273   -5.6296 N   0  0  0  0  0  0  0  0  0  0  0  0
   53.8612  157.2399   -2.8485 O   0  0  0  0  0  0  0  0  0  0  0  0
   56.0112  158.7908   -2.5846 H   0  0  0  0  0  0  0  0  0  0  0  0
   55.1291  158.7232   -1.0402 H   0  0  0  0  0  0  0  0  0  0  0  0
   56.6854  157.9165   -1.1887 H   0  0  0  0  0  0  0  0  0  0  0  0
   54.8453  155.3496   -4.4457 H   0  0  0  0  0  0  0  0  0  0  0  0
   53.2633  154.6901   -4.9376 H   0  0  0  0  0  0  0  0  0  0  0  0
   54.8204  156.2607   -1.3192 H   0  0  0  0  0  0  0  0  0  0  0  0
   55.7002  156.3260   -2.8683 H   0  0  0  0  0  0  0  0  0  0  0  0
   53.2384  155.3208   -2.5177 H   0  0  0  0  0  0  0  0  0  0  0  0
   52.1056  156.3474   -3.4346 H   0  0  0  0  0  0  0  0  0  0  0  0
   51.8049  155.8883   -5.6291 H   0  0  0  0  0  0  0  0  0  0  0  0
   51.9173  157.4587   -6.0383 H   0  0  0  0  0  0  0  0  0  0  0  0
   54.3590  156.4304   -6.3471 H   0  0  0  0  0  0  0  0  0  0  0  0
  1  3  1  0  0  0  0
  2  4  1  0  0  0  0
  2  6  1  0  0  0  0
  3  7  1  0  0  0  0
  4  7  1  0  0  0  0
  5  6  1  0  0  0  0
  1  8  1  0  0  0  0
  1  9  1  0  0  0  0
  1 10  1  0  0  0  0
  2 11  1  0  0  0  0
  2 12  1  0  0  0  0
  3 13  1  0  0  0  0
  3 14  1  0  0  0  0
  4 15  1  0  0  0  0
  4 16  1  0  0  0  0
  5 17  1  0  0  0  0
  5 18  1  0  0  0  0
  6 19  1  0  0  0  0
M  END
> <FRED Chemgauss4 score>
-3.029427

$$$$
C38362819	P135037319
  -OEChem-05122015083D

 22 21  0     0  0  0  0  0  0999 V2000
   54.9143  155.0810   -4.3443 C   0  0  0  0  0  0  0  0  0  0  0  0
   52.4255  155.3284   -4.1309 C   0  0  0  0  0  0  0  0  0  0  0  0
   53.8965  157.4096   -4.0949 C   0  0  0  0  0  0  0  0  0  0  0  0
   54.2578  157.7132   -5.5470 C   0  0  0  0  0  0  0  0  0  0  0  0
   53.7825  155.9139   -3.7390 C   0  0  0  0  0  0  0  0  0  0  0  0
   52.1344  158.0634   -6.4604 N   0  0  0  0  0  0  0  0  0  0  0  0
   53.2466  157.1632   -6.4200 N   0  0  0  0  0  0  0  0  0  0  0  0
   53.8783  155.8045   -2.3124 O   0  0  0  0  0  0  0  0  0  0  0  0
   55.8909  155.4950   -4.0675 H   0  0  0  0  0  0  0  0  0  0  0  0
   54.8704  155.1010   -5.4391 H   0  0  0  0  0  0  0  0  0  0  0  0
   54.8809  154.0382   -4.0148 H   0  0  0  0  0  0  0  0  0  0  0  0
   51.6087  155.9201   -3.7007 H   0  0  0  0  0  0  0  0  0  0  0  0
   52.2879  155.3591   -5.2177 H   0  0  0  0  0  0  0  0  0  0  0  0
   52.3086  154.2940   -3.7941 H   0  0  0  0  0  0  0  0  0  0  0  0
   54.6374  157.8791   -3.4322 H   0  0  0  0  0  0  0  0  0  0  0  0
   52.9500  157.9088   -3.8426 H   0  0  0  0  0  0  0  0  0  0  0  0
   54.3192  158.7917   -5.7188 H   0  0  0  0  0  0  0  0  0  0  0  0
   55.2239  157.2738   -5.8115 H   0  0  0  0  0  0  0  0  0  0  0  0
   51.3081  157.5954   -6.0890 H   0  0  0  0  0  0  0  0  0  0  0  0
   52.3145  158.8480   -5.8352 H   0  0  0  0  0  0  0  0  0  0  0  0
   53.6179  157.0591   -7.3678 H   0  0  0  0  0  0  0  0  0  0  0  0
   53.7838  154.8635   -2.1094 H   0  0  0  0  0  0  0  0  0  0  0  0
  1  5  1  0  0  0  0
  2  5  1  0  0  0  0
  3  4  1  0  0  0  0
  3  5  1  0  0  0  0
  4  7  1  0  0  0  0
  5  8  1  0  0  0  0
  6  7  1  0  0  0  0
  1  9  1  0  0  0  0
  1 10  1  0  0  0  0
  1 11  1  0  0  0  0
  2 12  1  0  0  0  0
  2 13  1  0  0  0  0
  2 14  1  0  0  0  0
  3 15  1  0  0  0  0
  3 16  1  0  0  0  0
  4 17  1  0  0  0  0
  4 18  1  0  0  0  0
  6 19  1  0  0  0  0
  6 20  1  0  0  0  0
  7 21  1  0  0  0  0
  8 22  1  0  0  0  0
M  END
> <FRED Chemgauss4 score>
-3.015417

$$$$
C96034658	P151250495
  -OEChem-05122015083D

 17 17  0     1  0  0  0  0  0999 V2000
   56.3480  156.8524   -4.6160 C   0  0  0  0  0  0  0  0  0  0  0  0
   55.7605  156.7250   -6.0372 C   0  0  0  0  0  0  0  0  0  0  0  0
   55.5876  155.5959   -4.1120 C   0  0  1  0  0  0  0  0  0  0  0  0
   54.2576  155.8586   -3.4245 C   0  0  0  0  0  0  0  0  0  0  0  0
   54.3555  157.0070   -2.5810 N   0  0  0  0  0  0  0  0  0  0  0  0
   54.1929  154.5726   -6.1677 O   0  0  0  0  0  0  0  0  0  0  0  0
   56.7145  154.2370   -6.1237 O   0  0  0  0  0  0  0  0  0  0  0  0
   55.5249  154.9903   -5.7865 S   0  0  0  0  0  0  0  0  0  0  0  0
   57.4417  156.7808   -4.5631 H   0  0  0  0  0  0  0  0  0  0  0  0
   56.0570  157.7857   -4.1109 H   0  0  0  0  0  0  0  0  0  0  0  0
   54.8343  157.2812   -6.2121 H   0  0  0  0  0  0  0  0  0  0  0  0
   56.4698  156.9355   -6.8461 H   0  0  0  0  0  0  0  0  0  0  0  0
   56.2152  154.9422   -3.4970 H   0  0  0  0  0  0  0  0  0  0  0  0
   53.9912  154.9989   -2.8169 H   0  0  0  0  0  0  0  0  0  0  0  0
   53.4907  156.0374   -4.1719 H   0  0  0  0  0  0  0  0  0  0  0  0
   55.2125  157.1831   -2.0717 H   0  0  0  0  0  0  0  0  0  0  0  0
   53.5185  157.5213   -2.3357 H   0  0  0  0  0  0  0  0  0  0  0  0
  1  2  1  0  0  0  0
  1  3  1  0  0  0  0
  2  8  1  0  0  0  0
  3  4  1  0  0  0  0
  3  8  1  0  0  0  0
  4  5  1  0  0  0  0
  6  8  2  0  0  0  0
  7  8  2  0  0  0  0
  1  9  1  0  0  0  0
  1 10  1  0  0  0  0
  2 11  1  0  0  0  0
  2 12  1  0  0  0  0
  3 13  1  0  0  0  0
  4 14  1  0  0  0  0
  4 15  1  0  0  0  0
  5 16  1  0  0  0  0
  5 17  1  0  0  0  0
M  END
> <FRED Chemgauss4 score>
-2.985692

$$$$
C02566799	P150451968
  -OEChem-05122015083D

 12 11  0     0  0  0  0  0  0999 V2000
   55.9235  155.1873   -5.2827 C   0  0  0  0  0  0  0  0  0  0  0  0
   55.7616  157.0801   -3.7373 C   0  0  0  0  0  0  0  0  0  0  0  0
   55.1080  156.1491   -4.6058 C   0  0  0  0  0  0  0  0  0  0  0  0
   53.7577  156.1775   -4.7818 C   0  0  0  0  0  0  0  0  0  0  0  0
   56.5875  154.4088   -5.8304 N   0  0  0  0  0  0  0  0  0  0  0  0
   56.2944  157.8340   -3.0339 N   0  0  0  0  0  0  0  0  0  0  0  0
   52.9709  157.1036   -4.1301 N   0  0  0  0  0  0  0  0  0  0  0  0
   53.1266  155.2809   -5.6181 N   0  0  0  0  0  0  0  0  0  0  0  0
   53.4171  157.7703   -3.5129 H   0  0  0  0  0  0  0  0  0  0  0  0
   51.9681  157.1269   -4.2607 H   0  0  0  0  0  0  0  0  0  0  0  0
   53.6478  154.5775   -6.1248 H   0  0  0  0  0  0  0  0  0  0  0  0
   52.1211  155.3378   -5.7203 H   0  0  0  0  0  0  0  0  0  0  0  0
  1  3  1  0  0  0  0
  1  5  3  0  0  0  0
  2  3  1  0  0  0  0
  2  6  3  0  0  0  0
  3  4  2  0  0  0  0
  4  7  1  0  0  0  0
  4  8  1  0  0  0  0
  7  9  1  0  0  0  0
  7 10  1  0  0  0  0
  8 11  1  0  0  0  0
  8 12  1  0  0  0  0
M  END
> <FRED Chemgauss4 score>
-2.901243

$$$$
C21969276	P32695386
  -OEChem-05122015083D

 20 20  0     0  0  0  0  0  0999 V2000
   54.7759  155.2163   -3.1817 C   0  0  0  0  0  0  0  0  0  0  0  0
   54.3389  155.2986   -4.5174 C   0  0  0  0  0  0  0  0  0  0  0  0
   53.0943  155.8739   -4.4367 C   0  0  0  0  0  0  0  0  0  0  0  0
   55.0098  154.8857   -5.7133 C   0  0  0  0  0  0  0  0  0  0  0  0
   51.6943  156.6786   -2.5063 C   0  0  0  0  0  0  0  0  0  0  0  0
   53.8817  155.7009   -2.3159 N   0  0  0  0  0  0  0  0  0  0  0  0
   56.3404  154.9288   -5.7131 N   0  0  0  0  0  0  0  0  0  0  0  0
   52.8704  156.0931   -3.1093 N   0  0  0  0  0  0  0  0  0  0  0  0
   52.1811  156.2077   -5.3731 N   0  0  0  0  0  0  0  0  0  0  0  0
   54.3332  154.4451   -6.8699 N   0  0  0  0  0  0  0  0  0  0  0  0
   56.8977  154.5067   -6.9244 O   0  0  0  0  0  0  0  0  0  0  0  0
   55.7078  154.8246   -2.8000 H   0  0  0  0  0  0  0  0  0  0  0  0
   50.9928  155.8708   -2.2817 H   0  0  0  0  0  0  0  0  0  0  0  0
   51.9781  157.2042   -1.5904 H   0  0  0  0  0  0  0  0  0  0  0  0
   51.2472  157.3917   -3.2046 H   0  0  0  0  0  0  0  0  0  0  0  0
   52.3607  156.0887   -6.3812 H   0  0  0  0  0  0  0  0  0  0  0  0
   51.2991  156.6842   -5.1332 H   0  0  0  0  0  0  0  0  0  0  0  0
   53.3218  154.3828   -6.8945 H   0  0  0  0  0  0  0  0  0  0  0  0
   54.8282  154.1368   -7.7001 H   0  0  0  0  0  0  0  0  0  0  0  0
   57.8483  154.6027   -6.7452 H   0  0  0  0  0  0  0  0  0  0  0  0
  1  2  1  0  0  0  0
  1  6  2  0  0  0  0
  2  3  2  0  0  0  0
  2  4  1  0  0  0  0
  3  8  1  0  0  0  0
  3  9  1  0  0  0  0
  4  7  2  0  0  0  0
  4 10  1  0  0  0  0
  5  8  1  0  0  0  0
  6  8  1  0  0  0  0
  7 11  1  0  0  0  0
  1 12  1  0  0  0  0
  5 13  1  0  0  0  0
  5 14  1  0  0  0  0
  5 15  1  0  0  0  0
  9 16  1  0  0  0  0
  9 17  1  0  0  0  0
 10 18  1  0  0  0  0
 10 19  1  0  0  0  0
 11 20  1  0  0  0  0
M  END
> <FRED Chemgauss4 score>
-2.885254

$$$$
C97509079	P154480388
  -OEChem-05122015083D

 20 19  0     1  0  0  0  0  0999 V2000
   55.2084  154.0232   -6.4034 C   0  0  0  0  0  0  0  0  0  0  0  0
   54.9548  154.4658   -5.1663 C   0  0  0  0  0  0  0  0  0  0  0  0
   55.1552  158.3461   -2.2991 C   0  0  0  0  0  0  0  0  0  0  0  0
   54.9448  156.3544   -3.5285 C   0  0  0  0  0  0  0  0  0  0  0  0
   54.4147  155.8330   -4.8625 C   0  0  1  0  0  0  0  0  0  0  0  0
   53.9503  157.8632   -5.9249 N   0  0  0  0  0  0  0  0  0  0  0  0
   54.7943  156.7072   -5.9477 N   0  0  0  0  0  0  0  0  0  0  0  0
   54.4064  157.6495   -3.2847 O   0  0  0  0  0  0  0  0  0  0  0  0
   55.5988  153.0272   -6.5808 H   0  0  0  0  0  0  0  0  0  0  0  0
   55.0261  154.6596   -7.2624 H   0  0  0  0  0  0  0  0  0  0  0  0
   55.1449  153.7973   -4.3294 H   0  0  0  0  0  0  0  0  0  0  0  0
   54.7158  159.3335   -2.1371 H   0  0  0  0  0  0  0  0  0  0  0  0
   56.1915  158.4468   -2.6312 H   0  0  0  0  0  0  0  0  0  0  0  0
   55.1272  157.7797   -1.3653 H   0  0  0  0  0  0  0  0  0  0  0  0
   56.0382  156.4274   -3.5251 H   0  0  0  0  0  0  0  0  0  0  0  0
   54.6329  155.7048   -2.7032 H   0  0  0  0  0  0  0  0  0  0  0  0
   53.3182  155.8343   -4.8478 H   0  0  0  0  0  0  0  0  0  0  0  0
   53.4108  157.9037   -6.7893 H   0  0  0  0  0  0  0  0  0  0  0  0
   53.2672  157.7657   -5.1748 H   0  0  0  0  0  0  0  0  0  0  0  0
   55.7656  157.0092   -5.8342 H   0  0  0  0  0  0  0  0  0  0  0  0
  1  2  2  0  0  0  0
  2  5  1  0  0  0  0
  3  8  1  0  0  0  0
  4  5  1  0  0  0  0
  4  8  1  0  0  0  0
  5  7  1  0  0  0  0
  6  7  1  0  0  0  0
  1  9  1  0  0  0  0
  1 10  1  0  0  0  0
  2 11  1  0  0  0  0
  3 12  1  0  0  0  0
  3 13  1  0  0  0  0
  3 14  1  0  0  0  0
  4 15  1  0  0  0  0
  4 16  1  0  0  0  0
  5 17  1  0  0  0  0
  6 18  1  0  0  0  0
  6 19  1  0  0  0  0
  7 20  1  0  0  0  0
M  END
> <FRED Chemgauss4 score>
-2.876573

$$$$
C37467081	P55708419
  -OEChem-05122015083D

 18 18  0     1  0  0  0  0  0999 V2000
   55.3194  157.5936   -2.5428 C   0  0  0  0  0  0  0  0  0  0  0  0
   56.2311  157.3643   -3.5496 C   0  0  0  0  0  0  0  0  0  0  0  0
   53.6065  157.1683   -3.9970 C   0  0  0  0  0  0  0  0  0  0  0  0
   54.5182  156.9397   -5.0041 C   0  0  0  0  0  0  0  0  0  0  0  0
   53.1722  157.6510   -7.0226 C   0  0  0  0  0  0  0  0  0  0  0  0
   54.0572  156.5759   -6.3723 C   0  0  2  0  0  0  0  0  0  0  0  0
   53.9907  157.4996   -2.7484 N   0  0  0  0  0  0  0  0  0  0  0  0
   55.8469  157.0333   -4.7983 N   0  0  0  0  0  0  0  0  0  0  0  0
   53.3669  155.2964   -6.3970 N   0  0  0  0  0  0  0  0  0  0  0  0
   55.6289  157.8596   -1.5397 H   0  0  0  0  0  0  0  0  0  0  0  0
   57.2986  157.4398   -3.3836 H   0  0  0  0  0  0  0  0  0  0  0  0
   52.5370  157.0945   -4.1549 H   0  0  0  0  0  0  0  0  0  0  0  0
   52.2876  157.8471   -6.4069 H   0  0  0  0  0  0  0  0  0  0  0  0
   53.7159  158.5945   -7.1457 H   0  0  0  0  0  0  0  0  0  0  0  0
   52.8302  157.3447   -8.0176 H   0  0  0  0  0  0  0  0  0  0  0  0
   54.9232  156.4316   -7.0437 H   0  0  0  0  0  0  0  0  0  0  0  0
   53.6919  154.5693   -5.7924 H   0  0  0  0  0  0  0  0  0  0  0  0
   52.7320  155.1133   -7.1475 H   0  0  0  0  0  0  0  0  0  0  0  0
  1  2  2  0  0  0  0
  1  7  1  0  0  0  0
  2  8  1  0  0  0  0
  3  4  1  0  0  0  0
  3  7  2  0  0  0  0
  4  6  1  0  0  0  0
  4  8  2  0  0  0  0
  5  6  1  0  0  0  0
  6  9  1  0  0  0  0
  1 10  1  0  0  0  0
  2 11  1  0  0  0  0
  3 12  1  0  0  0  0
  5 13  1  0  0  0  0
  5 14  1  0  0  0  0
  5 15  1  0  0  0  0
  6 16  1  0  0  0  0
  9 17  1  0  0  0  0
  9 18  1  0  0  0  0
M  END
> <FRED Chemgauss4 score>
-2.867687

$$$$
C97665270	P154881341
  -OEChem-05122015083D

 45 46  0     1  0  0  0  0  0999 V2000
   54.5726  159.7899   -2.9765 C   0  0  0  0  0  0  0  0  0  0  0  0
   55.3653  160.2804   -3.9873 C   0  0  0  0  0  0  0  0  0  0  0  0
   54.6408  158.2499   -4.4442 C   0  0  0  0  0  0  0  0  0  0  0  0
   54.4793  153.9470   -6.2081 C   0  0  0  0  0  0  0  0  0  0  0  0
   55.9758  153.7280   -6.4154 C   0  0  0  0  0  0  0  0  0  0  0  0
   54.1774  154.4770   -4.8092 C   0  0  0  0  0  0  0  0  0  0  0  0
   56.4764  155.5163   -4.7019 C   0  0  0  0  0  0  0  0  0  0  0  0
   56.7893  154.9930   -6.1111 C   0  0  1  0  0  0  0  0  0  0  0  0
   54.9743  155.7423   -4.4601 C   0  0  1  0  0  0  0  0  0  0  0  0
   58.2852  154.7177   -6.2613 C   0  0  0  0  0  0  0  0  0  0  0  0
   57.5996  159.5756   -5.9826 C   0  0  0  0  0  0  0  0  0  0  0  0
   53.4366  155.7443   -2.6829 C   0  0  0  0  0  0  0  0  0  0  0  0
   56.1131  159.3285   -6.1749 C   0  0  0  0  0  0  0  0  0  0  0  0
   54.4505  156.9664   -5.2193 C   0  0  1  0  0  0  0  0  0  0  0  0
   54.1251  158.5254   -3.2668 N   0  0  0  0  0  0  0  0  0  0  0  0
   55.4000  159.2825   -4.9201 N   0  0  0  0  0  0  0  0  0  0  0  0
   52.7675  157.5791   -6.7220 N   0  0  0  0  0  0  0  0  0  0  0  0
   53.0689  156.7640   -5.5840 N   0  0  0  0  0  0  0  0  0  0  0  0
   54.7785  155.9949   -3.0640 O   0  0  0  0  0  0  0  0  0  0  0  0
   54.3016  160.2830   -2.0543 H   0  0  0  0  0  0  0  0  0  0  0  0
   55.8876  161.2179   -4.1174 H   0  0  0  0  0  0  0  0  0  0  0  0
   54.1005  154.6446   -6.9639 H   0  0  0  0  0  0  0  0  0  0  0  0
   53.9476  153.0008   -6.3618 H   0  0  0  0  0  0  0  0  0  0  0  0
   56.3104  152.9063   -5.7689 H   0  0  0  0  0  0  0  0  0  0  0  0
   56.1535  153.4086   -7.4493 H   0  0  0  0  0  0  0  0  0  0  0  0
   53.1015  154.6660   -4.7061 H   0  0  0  0  0  0  0  0  0  0  0  0
   54.4036  153.6932   -4.0733 H   0  0  0  0  0  0  0  0  0  0  0  0
   56.8535  154.8055   -3.9529 H   0  0  0  0  0  0  0  0  0  0  0  0
   57.0278  156.4473   -4.5152 H   0  0  0  0  0  0  0  0  0  0  0  0
   56.5210  155.7638   -6.8442 H   0  0  0  0  0  0  0  0  0  0  0  0
   58.5925  153.9550   -5.5482 H   0  0  0  0  0  0  0  0  0  0  0  0
   58.8479  155.6302   -6.0734 H   0  0  0  0  0  0  0  0  0  0  0  0
   58.4956  154.3691   -7.2707 H   0  0  0  0  0  0  0  0  0  0  0  0
   57.7794  160.5231   -5.4637 H   0  0  0  0  0  0  0  0  0  0  0  0
   58.1059  159.6159   -6.9519 H   0  0  0  0  0  0  0  0  0  0  0  0
   58.0596  158.7780   -5.3898 H   0  0  0  0  0  0  0  0  0  0  0  0
   53.3168  155.9448   -1.6154 H   0  0  0  0  0  0  0  0  0  0  0  0
   53.1837  154.7034   -2.8997 H   0  0  0  0  0  0  0  0  0  0  0  0
   52.7766  156.4037   -3.2515 H   0  0  0  0  0  0  0  0  0  0  0  0
   55.9434  158.3788   -6.6946 H   0  0  0  0  0  0  0  0  0  0  0  0
   55.6663  160.1192   -6.7881 H   0  0  0  0  0  0  0  0  0  0  0  0
   55.0005  157.0280   -6.1646 H   0  0  0  0  0  0  0  0  0  0  0  0
   53.6106  158.0708   -7.0170 H   0  0  0  0  0  0  0  0  0  0  0  0
   52.5060  156.9809   -7.5048 H   0  0  0  0  0  0  0  0  0  0  0  0
   52.4551  157.0407   -4.8127 H   0  0  0  0  0  0  0  0  0  0  0  0
  1  2  2  0  0  0  0
  1 15  1  0  0  0  0
  2 16  1  0  0  0  0
  3 14  1  0  0  0  0
  3 15  2  0  0  0  0
  3 16  1  0  0  0  0
  4  5  1  0  0  0  0
  4  6  1  0  0  0  0
  5  8  1  0  0  0  0
  6  9  1  0  0  0  0
  7  8  1  0  0  0  0
  7  9  1  0  0  0  0
  8 10  1  0  0  0  0
  9 14  1  0  0  0  0
  9 19  1  0  0  0  0
 11 13  1  0  0  0  0
 12 19  1  0  0  0  0
 13 16  1  0  0  0  0
 14 18  1  0  0  0  0
 17 18  1  0  0  0  0
  1 20  1  0  0  0  0
  2 21  1  0  0  0  0
  4 22  1  0  0  0  0
  4 23  1  0  0  0  0
  5 24  1  0  0  0  0
  5 25  1  0  0  0  0
  6 26  1  0  0  0  0
  6 27  1  0  0  0  0
  7 28  1  0  0  0  0
  7 29  1  0  0  0  0
  8 30  1  0  0  0  0
 10 31  1  0  0  0  0
 10 32  1  0  0  0  0
 10 33  1  0  0  0  0
 11 34  1  0  0  0  0
 11 35  1  0  0  0  0
 11 36  1  0  0  0  0
 12 37  1  0  0  0  0
 12 38  1  0  0  0  0
 12 39  1  0  0  0  0
 13 40  1  0  0  0  0
 13 41  1  0  0  0  0
 14 42  1  0  0  0  0
 17 43  1  0  0  0  0
 17 44  1  0  0  0  0
 18 45  1  0  0  0  0
M  END
> <FRED Chemgauss4 score>
-2.849982

$$$$
C71266836	P110163305
  -OEChem-05122015083D

 38 39  0     1  0  0  0  0  0999 V2000
   56.9378  161.8043   -2.0919 C   0  0  0  0  0  0  0  0  0  0  0  0
   55.8954  162.3738   -2.8146 C   0  0  0  0  0  0  0  0  0  0  0  0
   57.7676  155.6225   -4.5523 C   0  0  0  0  0  0  0  0  0  0  0  0
   57.8775  154.5281   -5.4101 C   0  0  0  0  0  0  0  0  0  0  0  0
   56.8438  160.4824   -1.6711 C   0  0  0  0  0  0  0  0  0  0  0  0
   55.6650  154.9793   -6.2693 C   0  0  0  0  0  0  0  0  0  0  0  0
   54.7895  161.5853   -3.0886 C   0  0  0  0  0  0  0  0  0  0  0  0
   55.5551  156.0737   -5.4114 C   0  0  0  0  0  0  0  0  0  0  0  0
   56.6064  156.3953   -4.5529 C   0  0  0  0  0  0  0  0  0  0  0  0
   56.8262  154.2065   -6.2686 C   0  0  0  0  0  0  0  0  0  0  0  0
   55.6954  159.7786   -1.9961 C   0  0  0  0  0  0  0  0  0  0  0  0
   54.3308  156.8630   -5.4314 C   0  0  0  0  0  0  0  0  0  0  0  0
   55.2615  156.0615   -2.2289 C   0  0  0  0  0  0  0  0  0  0  0  0
   56.5144  157.5677   -3.6196 C   0  0  0  0  0  0  0  0  0  0  0  0
   55.5597  158.3491   -1.5578 C   0  0  0  0  0  0  0  0  0  0  0  0
   54.6622  160.2978   -2.6965 N   0  0  0  0  0  0  0  0  0  0  0  0
   54.4615  158.1396   -5.7410 N   0  0  0  0  0  0  0  0  0  0  0  0
   53.0791  156.3153   -5.1398 N   0  0  0  0  0  0  0  0  0  0  0  0
   55.3901  157.4424   -2.6928 N   0  0  2  0  0  0  0  0  0  0  0  0
   53.2325  158.8070   -5.7323 O   0  0  0  0  0  0  0  0  0  0  0  0
   56.9316  153.1553   -7.0920 F   0  0  0  0  0  0  0  0  0  0  0  0
   57.8218  162.3897   -1.8571 H   0  0  0  0  0  0  0  0  0  0  0  0
   55.9470  163.4023   -3.1529 H   0  0  0  0  0  0  0  0  0  0  0  0
   58.5918  155.8647   -3.8866 H   0  0  0  0  0  0  0  0  0  0  0  0
   58.7815  153.9262   -5.4096 H   0  0  0  0  0  0  0  0  0  0  0  0
   57.6501  160.0264   -1.1066 H   0  0  0  0  0  0  0  0  0  0  0  0
   54.8539  154.7180   -6.9441 H   0  0  0  0  0  0  0  0  0  0  0  0
   53.9496  161.9823   -3.6491 H   0  0  0  0  0  0  0  0  0  0  0  0
   54.4198  155.9745   -1.5368 H   0  0  0  0  0  0  0  0  0  0  0  0
   56.1741  155.7491   -1.7141 H   0  0  0  0  0  0  0  0  0  0  0  0
   55.0907  155.3924   -3.0765 H   0  0  0  0  0  0  0  0  0  0  0  0
   57.4309  157.6624   -3.0271 H   0  0  0  0  0  0  0  0  0  0  0  0
   56.3879  158.5031   -4.1748 H   0  0  0  0  0  0  0  0  0  0  0  0
   56.4476  158.0300   -1.0010 H   0  0  0  0  0  0  0  0  0  0  0  0
   54.6971  158.2213   -0.8954 H   0  0  0  0  0  0  0  0  0  0  0  0
   52.9602  155.3330   -4.9199 H   0  0  0  0  0  0  0  0  0  0  0  0
   52.2358  156.8778   -5.1794 H   0  0  0  0  0  0  0  0  0  0  0  0
   53.4996  159.7099   -5.9742 H   0  0  0  0  0  0  0  0  0  0  0  0
  1  2  1  0  0  0  0
  1  5  2  0  0  0  0
  2  7  2  0  0  0  0
  3  4  2  0  0  0  0
  3  9  1  0  0  0  0
  4 10  1  0  0  0  0
  5 11  1  0  0  0  0
  6  8  1  0  0  0  0
  6 10  2  0  0  0  0
  7 16  1  0  0  0  0
  8  9  2  0  0  0  0
  8 12  1  0  0  0  0
  9 14  1  0  0  0  0
 10 21  1  0  0  0  0
 11 15  1  0  0  0  0
 11 16  2  0  0  0  0
 12 17  2  0  0  0  0
 12 18  1  0  0  0  0
 13 19  1  0  0  0  0
 14 19  1  0  0  0  0
 15 19  1  0  0  0  0
 17 20  1  0  0  0  0
  1 22  1  0  0  0  0
  2 23  1  0  0  0  0
  3 24  1  0  0  0  0
  4 25  1  0  0  0  0
  5 26  1  0  0  0  0
  6 27  1  0  0  0  0
  7 28  1  0  0  0  0
 13 29  1  0  0  0  0
 13 30  1  0  0  0  0
 13 31  1  0  0  0  0
 14 32  1  0  0  0  0
 14 33  1  0  0  0  0
 15 34  1  0  0  0  0
 15 35  1  0  0  0  0
 18 36  1  0  0  0  0
 18 37  1  0  0  0  0
 20 38  1  0  0  0  0
M  END
> <FRED Chemgauss4 score>
-2.819238

$$$$
C88171488	P137890117
  -OEChem-05122015083D

 35 35  0     0  0  0  0  0  0999 V2000
   52.8376  162.2221   -8.6047 C   0  0  0  0  0  0  0  0  0  0  0  0
   53.5998  163.7548   -6.8997 C   0  0  0  0  0  0  0  0  0  0  0  0
   53.0583  161.4731   -6.3185 C   0  0  0  0  0  0  0  0  0  0  0  0
   52.7307  161.2119   -7.6489 C   0  0  0  0  0  0  0  0  0  0  0  0
   53.4929  162.7445   -5.9438 C   0  0  0  0  0  0  0  0  0  0  0  0
   53.2722  163.4936   -8.2302 C   0  0  0  0  0  0  0  0  0  0  0  0
   55.1559  157.3202   -3.1904 C   0  0  0  0  0  0  0  0  0  0  0  0
   55.8613  159.1239   -1.5987 C   0  0  0  0  0  0  0  0  0  0  0  0
   56.8524  159.1145   -3.8789 C   0  0  0  0  0  0  0  0  0  0  0  0
   54.4121  159.7358   -3.5642 C   0  0  0  0  0  0  0  0  0  0  0  0
   54.0289  159.5652   -5.0364 C   0  0  0  0  0  0  0  0  0  0  0  0
   55.5662  158.8173   -3.0813 C   0  0  0  0  0  0  0  0  0  0  0  0
   54.1052  156.9323   -2.5236 N   0  0  0  0  0  0  0  0  0  0  0  0
   55.9384  156.5151   -3.9918 N   0  0  0  0  0  0  0  0  0  0  0  0
   52.9523  160.4704   -5.3692 N   0  0  0  0  0  0  0  0  0  0  0  0
   53.8736  155.5690   -2.7279 O   0  0  0  0  0  0  0  0  0  0  0  0
   52.3118  159.9936   -8.0197 F   0  0  0  0  0  0  0  0  0  0  0  0
   53.8112  163.0064   -4.6682 F   0  0  0  0  0  0  0  0  0  0  0  0
   53.4185  164.8616   -9.5254 Br  0  0  0  0  0  0  0  0  0  0  0  0
   52.5791  162.0019   -9.6372 H   0  0  0  0  0  0  0  0  0  0  0  0
   53.9403  164.7396   -6.5910 H   0  0  0  0  0  0  0  0  0  0  0  0
   56.1568  160.1702   -1.4615 H   0  0  0  0  0  0  0  0  0  0  0  0
   54.9874  158.9444   -0.9628 H   0  0  0  0  0  0  0  0  0  0  0  0
   56.6728  158.4915   -1.2203 H   0  0  0  0  0  0  0  0  0  0  0  0
   57.1483  160.1665   -3.8073 H   0  0  0  0  0  0  0  0  0  0  0  0
   57.6900  158.5063   -3.5189 H   0  0  0  0  0  0  0  0  0  0  0  0
   56.7174  158.8923   -4.9442 H   0  0  0  0  0  0  0  0  0  0  0  0
   53.5191  159.5696   -2.9471 H   0  0  0  0  0  0  0  0  0  0  0  0
   54.6906  160.7853   -3.3942 H   0  0  0  0  0  0  0  0  0  0  0  0
   53.7014  158.5419   -5.2419 H   0  0  0  0  0  0  0  0  0  0  0  0
   54.8792  159.7844   -5.6884 H   0  0  0  0  0  0  0  0  0  0  0  0
   56.7447  156.8672   -4.4955 H   0  0  0  0  0  0  0  0  0  0  0  0
   55.7206  155.5310   -4.1057 H   0  0  0  0  0  0  0  0  0  0  0  0
   52.0716  160.3624   -4.8802 H   0  0  0  0  0  0  0  0  0  0  0  0
   53.0809  155.4223   -2.1847 H   0  0  0  0  0  0  0  0  0  0  0  0
  1  4  2  0  0  0  0
  1  6  1  0  0  0  0
  2  5  1  0  0  0  0
  2  6  2  0  0  0  0
  3  4  1  0  0  0  0
  3  5  2  0  0  0  0
  3 15  1  0  0  0  0
  4 17  1  0  0  0  0
  5 18  1  0  0  0  0
  6 19  1  0  0  0  0
  7 12  1  0  0  0  0
  7 13  2  0  0  0  0
  7 14  1  0  0  0  0
  8 12  1  0  0  0  0
  9 12  1  0  0  0  0
 10 11  1  0  0  0  0
 10 12  1  0  0  0  0
 11 15  1  0  0  0  0
 13 16  1  0  0  0  0
  1 20  1  0  0  0  0
  2 21  1  0  0  0  0
  8 22  1  0  0  0  0
  8 23  1  0  0  0  0
  8 24  1  0  0  0  0
  9 25  1  0  0  0  0
  9 26  1  0  0  0  0
  9 27  1  0  0  0  0
 10 28  1  0  0  0  0
 10 29  1  0  0  0  0
 11 30  1  0  0  0  0
 11 31  1  0  0  0  0
 14 32  1  0  0  0  0
 14 33  1  0  0  0  0
 15 34  1  0  0  0  0
 16 35  1  0  0  0  0
M  END
> <FRED Chemgauss4 score>
-2.646115

$$$$
C95922800	P151023651
  -OEChem-05122015083D

 15 15  0     0  0  0  0  0  0999 V2000
   54.6597  155.0339   -5.4136 C   0  0  0  0  0  0  0  0  0  0  0  0
   56.0610  155.4740   -5.3629 C   0  0  0  0  0  0  0  0  0  0  0  0
   53.7785  155.7364   -4.6810 C   0  0  0  0  0  0  0  0  0  0  0  0
   55.6161  157.2045   -3.9210 C   0  0  0  0  0  0  0  0  0  0  0  0
   56.5119  156.4715   -4.6792 N   0  0  0  0  0  0  0  0  0  0  0  0
   54.2679  156.8097   -3.9462 N   0  0  0  0  0  0  0  0  0  0  0  0
   52.4505  155.3837   -4.6782 N   0  0  0  0  0  0  0  0  0  0  0  0
   53.3607  157.5457   -3.1818 N   0  0  0  0  0  0  0  0  0  0  0  0
   55.9993  158.1668   -3.2526 O   0  0  0  0  0  0  0  0  0  0  0  0
   54.3970  154.1801   -6.0247 H   0  0  0  0  0  0  0  0  0  0  0  0
   56.7628  154.8813   -5.9714 H   0  0  0  0  0  0  0  0  0  0  0  0
   52.1723  154.6056   -5.2272 H   0  0  0  0  0  0  0  0  0  0  0  0
   51.8249  155.9219   -4.1275 H   0  0  0  0  0  0  0  0  0  0  0  0
   52.4396  157.5642   -3.6366 H   0  0  0  0  0  0  0  0  0  0  0  0
   53.6509  158.5298   -3.1328 H   0  0  0  0  0  0  0  0  0  0  0  0
  1  2  1  0  0  0  0
  1  3  2  0  0  0  0
  2  5  2  0  0  0  0
  3  6  1  0  0  0  0
  3  7  1  0  0  0  0
  4  5  1  0  0  0  0
  4  6  1  0  0  0  0
  4  9  2  0  0  0  0
  6  8  1  0  0  0  0
  1 10  1  0  0  0  0
  2 11  1  0  0  0  0
  7 12  1  0  0  0  0
  7 13  1  0  0  0  0
  8 14  1  0  0  0  0
  8 15  1  0  0  0  0
M  END
> <FRED Chemgauss4 score>
-2.586872

$$$$
C95616413	P150349637
  -OEChem-05122015083D

 18 18  0     1  0  0  0  0  0999 V2000
   55.2697  155.8540   -5.7279 C   0  0  0  0  0  0  0  0  0  0  0  0
   55.6409  155.3801   -4.3253 C   0  0  0  0  0  0  0  0  0  0  0  0
   53.3932  156.0514   -4.2870 C   0  0  0  0  0  0  0  0  0  0  0  0
   54.0088  156.6834   -5.5226 C   0  0  2  0  0  0  0  0  0  0  0  0
   54.5668  155.8390   -3.4407 N   0  0  0  0  0  0  0  0  0  0  0  0
   51.9902  157.4833   -6.3893 N   0  0  0  0  0  0  0  0  0  0  0  0
   53.1235  156.6606   -6.6736 N   0  0  0  0  0  0  0  0  0  0  0  0
   56.0673  156.4427   -6.1929 H   0  0  0  0  0  0  0  0  0  0  0  0
   55.0768  154.9836   -6.3679 H   0  0  0  0  0  0  0  0  0  0  0  0
   55.7211  154.2876   -4.3030 H   0  0  0  0  0  0  0  0  0  0  0  0
   56.5988  155.7979   -4.0011 H   0  0  0  0  0  0  0  0  0  0  0  0
   52.6633  156.7074   -3.8033 H   0  0  0  0  0  0  0  0  0  0  0  0
   52.9091  155.0930   -4.5128 H   0  0  0  0  0  0  0  0  0  0  0  0
   54.2895  157.7230   -5.3063 H   0  0  0  0  0  0  0  0  0  0  0  0
   54.3745  155.1524   -2.7138 H   0  0  0  0  0  0  0  0  0  0  0  0
   51.1456  156.9120   -6.3990 H   0  0  0  0  0  0  0  0  0  0  0  0
   52.0722  157.8426   -5.4391 H   0  0  0  0  0  0  0  0  0  0  0  0
   53.6091  157.0348   -7.4897 H   0  0  0  0  0  0  0  0  0  0  0  0
  1  2  1  0  0  0  0
  1  4  1  0  0  0  0
  2  5  1  0  0  0  0
  3  4  1  0  0  0  0
  3  5  1  0  0  0  0
  4  7  1  0  0  0  0
  6  7  1  0  0  0  0
  1  8  1  0  0  0  0
  1  9  1  0  0  0  0
  2 10  1  0  0  0  0
  2 11  1  0  0  0  0
  3 12  1  0  0  0  0
  3 13  1  0  0  0  0
  4 14  1  0  0  0  0
  5 15  1  0  0  0  0
  6 16  1  0  0  0  0
  6 17  1  0  0  0  0
  7 18  1  0  0  0  0
M  END
> <FRED Chemgauss4 score>
-2.585865

$$$$
C95636640	P150389147
  -OEChem-05122015083D

 21 22  0     1  0  0  0  0  0999 V2000
   58.3790  158.0647   -5.0052 C   0  0  0  0  0  0  0  0  0  0  0  0
   58.2863  158.8939   -3.8861 C   0  0  0  0  0  0  0  0  0  0  0  0
   55.9602  157.7915   -5.0572 C   0  0  0  0  0  0  0  0  0  0  0  0
   55.8805  158.6189   -3.9511 C   0  0  0  0  0  0  0  0  0  0  0  0
   57.2235  157.5187   -5.5885 C   0  0  0  0  0  0  0  0  0  0  0  0
   57.0266  159.1603   -3.3860 C   0  0  0  0  0  0  0  0  0  0  0  0
   55.3410  160.1623   -2.3453 C   0  0  0  0  0  0  0  0  0  0  0  0
   54.6976  159.0316   -3.1589 C   0  0  2  0  0  0  0  0  0  0  0  0
   57.3418  156.6806   -6.7187 N   0  0  0  0  0  0  0  0  0  0  0  0
   54.2140  157.9671   -2.3199 N   0  0  0  0  0  0  0  0  0  0  0  0
   56.7744  159.9492   -2.2925 O   0  0  0  0  0  0  0  0  0  0  0  0
   59.3591  157.8434   -5.4215 H   0  0  0  0  0  0  0  0  0  0  0  0
   59.1762  159.3152   -3.4322 H   0  0  0  0  0  0  0  0  0  0  0  0
   55.0632  157.3632   -5.4934 H   0  0  0  0  0  0  0  0  0  0  0  0
   55.1718  161.1337   -2.8293 H   0  0  0  0  0  0  0  0  0  0  0  0
   54.9517  160.2361   -1.3235 H   0  0  0  0  0  0  0  0  0  0  0  0
   53.8895  159.4246   -3.7913 H   0  0  0  0  0  0  0  0  0  0  0  0
   58.2451  156.5255   -7.1167 H   0  0  0  0  0  0  0  0  0  0  0  0
   56.5127  156.3344   -7.1560 H   0  0  0  0  0  0  0  0  0  0  0  0
   54.1645  157.0477   -2.7055 H   0  0  0  0  0  0  0  0  0  0  0  0
   53.7589  158.2099   -1.4651 H   0  0  0  0  0  0  0  0  0  0  0  0
  1  2  1  0  0  0  0
  1  5  2  0  0  0  0
  2  6  2  0  0  0  0
  3  4  2  0  0  0  0
  3  5  1  0  0  0  0
  4  6  1  0  0  0  0
  4  8  1  0  0  0  0
  5  9  1  0  0  0  0
  6 11  1  0  0  0  0
  7  8  1  0  0  0  0
  7 11  1  0  0  0  0
  8 10  1  0  0  0  0
  1 12  1  0  0  0  0
  2 13  1  0  0  0  0
  3 14  1  0  0  0  0
  7 15  1  0  0  0  0
  7 16  1  0  0  0  0
  8 17  1  0  0  0  0
  9 18  1  0  0  0  0
  9 19  1  0  0  0  0
 10 20  1  0  0  0  0
 10 21  1  0  0  0  0
M  END
> <FRED Chemgauss4 score>
-2.541612

$$$$
C18310963	P151024905
  -OEChem-05122015083D

 14 15  0     0  0  0  0  0  0999 V2000
   53.7787  156.7119   -3.3011 C   0  0  0  0  0  0  0  0  0  0  0  0
   55.2683  158.3013   -3.1164 C   0  0  0  0  0  0  0  0  0  0  0  0
   55.5353  159.2884   -4.9830 C   0  0  0  0  0  0  0  0  0  0  0  0
   54.4992  158.2199   -5.2141 C   0  0  0  0  0  0  0  0  0  0  0  0
   54.2089  156.7291   -2.0520 N   0  0  0  0  0  0  0  0  0  0  0  0
   55.1612  157.7451   -1.9330 N   0  0  0  0  0  0  0  0  0  0  0  0
   55.9550  159.2955   -3.7378 N   0  0  0  0  0  0  0  0  0  0  0  0
   53.8740  157.9178   -6.2887 N   0  0  0  0  0  0  0  0  0  0  0  0
   54.4262  157.6807   -3.9741 N   0  0  0  0  0  0  0  0  0  0  0  0
   55.9182  160.0995   -6.0096 N   0  0  0  0  0  0  0  0  0  0  0  0
   53.0408  156.0470   -3.7257 H   0  0  0  0  0  0  0  0  0  0  0  0
   54.1768  158.5351   -7.0534 H   0  0  0  0  0  0  0  0  0  0  0  0
   55.4994  159.9676   -6.9050 H   0  0  0  0  0  0  0  0  0  0  0  0
   56.6057  160.8004   -5.8347 H   0  0  0  0  0  0  0  0  0  0  0  0
  1  5  2  0  0  0  0
  1  9  1  0  0  0  0
  2  6  2  0  0  0  0
  2  7  1  0  0  0  0
  2  9  1  0  0  0  0
  3  4  1  0  0  0  0
  3  7  2  0  0  0  0
  3 10  1  0  0  0  0
  4  8  2  0  0  0  0
  4  9  1  0  0  0  0
  5  6  1  0  0  0  0
  1 11  1  0  0  0  0
  8 12  1  0  0  0  0
 10 13  1  0  0  0  0
 10 14  1  0  0  0  0
M  END
> <FRED Chemgauss4 score>
-2.508271

$$$$
C45073360	P67936567
  -OEChem-05122015083D

 35 36  0     1  0  0  0  0  0999 V2000
   54.6107  156.4108   -3.5967 C   0  0  0  0  0  0  0  0  0  0  0  0
   55.0922  155.6784   -5.7328 C   0  0  0  0  0  0  0  0  0  0  0  0
   53.3800  155.6711   -4.0419 C   0  0  0  0  0  0  0  0  0  0  0  0
   57.0826  158.3332   -4.1446 C   0  0  0  0  0  0  0  0  0  0  0  0
   57.4179  157.8329   -5.5182 C   0  0  0  0  0  0  0  0  0  0  0  0
   53.6542  155.3004   -5.4918 C   0  0  1  0  0  0  0  0  0  0  0  0
   56.8815  156.8816   -4.4838 C   0  0  0  0  0  0  0  0  0  0  0  0
   52.1880  158.3217   -7.1645 C   0  0  0  0  0  0  0  0  0  0  0  0
   53.0593  157.4850   -6.2346 C   0  0  0  0  0  0  0  0  0  0  0  0
   52.3723  159.8172   -6.9454 C   0  0  0  0  0  0  0  0  0  0  0  0
   55.5517  156.3141   -4.5986 N   0  0  0  0  0  0  0  0  0  0  0  0
   51.7626  162.3327   -7.5383 N   0  0  0  0  0  0  0  0  0  0  0  0
   52.8679  156.0540   -6.4272 N   0  0  0  0  0  0  0  0  0  0  0  0
   54.7201  156.9685   -2.5134 O   0  0  0  0  0  0  0  0  0  0  0  0
   55.6884  155.5013   -6.7867 O   0  0  0  0  0  0  0  0  0  0  0  0
   51.7760  160.5411   -9.3841 O   0  0  0  0  0  0  0  0  0  0  0  0
   49.9499  160.5103   -7.6376 O   0  0  0  0  0  0  0  0  0  0  0  0
   51.3302  160.7550   -8.0182 S   0  0  0  0  0  0  0  0  0  0  0  0
   53.2640  154.7740   -3.4247 H   0  0  0  0  0  0  0  0  0  0  0  0
   52.4952  156.3024   -3.9137 H   0  0  0  0  0  0  0  0  0  0  0  0
   57.9045  158.6020   -3.4923 H   0  0  0  0  0  0  0  0  0  0  0  0
   56.2006  158.9520   -4.0343 H   0  0  0  0  0  0  0  0  0  0  0  0
   56.7616  158.1147   -6.3322 H   0  0  0  0  0  0  0  0  0  0  0  0
   58.4647  157.7659   -5.7878 H   0  0  0  0  0  0  0  0  0  0  0  0
   53.5303  154.2280   -5.6575 H   0  0  0  0  0  0  0  0  0  0  0  0
   57.5889  156.1799   -4.0553 H   0  0  0  0  0  0  0  0  0  0  0  0
   51.1368  158.0584   -6.9945 H   0  0  0  0  0  0  0  0  0  0  0  0
   52.4084  158.0722   -8.2099 H   0  0  0  0  0  0  0  0  0  0  0  0
   54.1209  157.7040   -6.3871 H   0  0  0  0  0  0  0  0  0  0  0  0
   52.8116  157.7023   -5.1909 H   0  0  0  0  0  0  0  0  0  0  0  0
   52.1134  160.1040   -5.9217 H   0  0  0  0  0  0  0  0  0  0  0  0
   53.3993  160.1325   -7.1515 H   0  0  0  0  0  0  0  0  0  0  0  0
   52.3167  162.8972   -8.1941 H   0  0  0  0  0  0  0  0  0  0  0  0
   51.0732  162.8761   -7.0045 H   0  0  0  0  0  0  0  0  0  0  0  0
   51.8826  155.8264   -6.2969 H   0  0  0  0  0  0  0  0  0  0  0  0
  1  3  1  0  0  0  0
  1 11  1  0  0  0  0
  1 14  2  0  0  0  0
  2  6  1  0  0  0  0
  2 11  1  0  0  0  0
  2 15  2  0  0  0  0
  3  6  1  0  0  0  0
  4  5  1  0  0  0  0
  4  7  1  0  0  0  0
  5  7  1  0  0  0  0
  6 13  1  0  0  0  0
  7 11  1  0  0  0  0
  8  9  1  0  0  0  0
  8 10  1  0  0  0  0
  9 13  1  0  0  0  0
 10 18  1  0  0  0  0
 12 18  1  0  0  0  0
 16 18  2  0  0  0  0
 17 18  2  0  0  0  0
  3 19  1  0  0  0  0
  3 20  1  0  0  0  0
  4 21  1  0  0  0  0
  4 22  1  0  0  0  0
  5 23  1  0  0  0  0
  5 24  1  0  0  0  0
  6 25  1  0  0  0  0
  7 26  1  0  0  0  0
  8 27  1  0  0  0  0
  8 28  1  0  0  0  0
  9 29  1  0  0  0  0
  9 30  1  0  0  0  0
 10 31  1  0  0  0  0
 10 32  1  0  0  0  0
 12 33  1  0  0  0  0
 12 34  1  0  0  0  0
 13 35  1  0  0  0  0
M  END
> <FRED Chemgauss4 score>
-2.449397

$$$$
C71297163	P110220857
  -OEChem-05122015083D

 56 60  0     1  0  0  0  0  0999 V2000
   55.7022  160.5140   -3.2497 C   0  0  0  0  0  0  0  0  0  0  0  0
   56.8448  159.8111   -3.2579 C   0  0  0  0  0  0  0  0  0  0  0  0
   54.0370  159.2925   -5.3912 C   0  0  0  0  0  0  0  0  0  0  0  0
   55.5653  156.3429   -4.0754 C   0  0  0  0  0  0  0  0  0  0  0  0
   51.5460  160.7989   -7.1520 C   0  0  0  0  0  0  0  0  0  0  0  0
   50.8251  159.5173   -7.4474 C   0  0  0  0  0  0  0  0  0  0  0  0
   55.3403  158.6372   -1.9629 C   0  0  0  0  0  0  0  0  0  0  0  0
   54.6265  153.6676   -5.2736 C   0  0  0  0  0  0  0  0  0  0  0  0
   55.9607  152.2843   -8.3657 C   0  0  0  0  0  0  0  0  0  0  0  0
   54.6633  151.8819   -9.0898 C   0  0  0  0  0  0  0  0  0  0  0  0
   53.3825  152.2738   -7.0563 C   0  0  0  0  0  0  0  0  0  0  0  0
   56.7562  153.6622   -6.4795 C   0  0  0  0  0  0  0  0  0  0  0  0
   54.5807  159.5474   -2.9327 C   0  0  2  0  0  0  0  0  0  0  0  0
   56.4855  158.3750   -2.9530 C   0  0  1  0  0  0  0  0  0  0  0  0
   54.3751  158.5733   -4.1209 C   0  0  2  0  0  0  0  0  0  0  0  0
   55.7353  157.8215   -4.1897 C   0  0  2  0  0  0  0  0  0  0  0  0
   54.6935  152.5946   -6.3471 C   0  0  1  0  0  0  0  0  0  0  0  0
   52.3014  159.4981   -7.1598 C   0  0  0  0  0  0  0  0  0  0  0  0
   56.0712  154.1883   -5.2090 C   0  0  1  0  0  0  0  0  0  0  0  0
   52.4219  151.0052   -8.8734 C   0  0  0  0  0  0  0  0  0  0  0  0
   55.6316  153.2062   -7.2888 N   0  0  2  0  0  0  0  0  0  0  0  0
   53.6545  151.3375   -8.1620 N   0  0  1  0  0  0  0  0  0  0  0  0
   52.8218  158.9272   -5.9383 N   0  0  0  0  0  0  0  0  0  0  0  0
   56.1196  155.6243   -5.1218 N   0  0  0  0  0  0  0  0  0  0  0  0
   54.8192  160.1204   -5.8433 O   0  0  0  0  0  0  0  0  0  0  0  0
   54.9753  155.8756   -3.1084 O   0  0  0  0  0  0  0  0  0  0  0  0
   55.5929  161.5623   -3.4766 H   0  0  0  0  0  0  0  0  0  0  0  0
   57.8271  160.1864   -3.4955 H   0  0  0  0  0  0  0  0  0  0  0  0
   51.6999  161.4903   -7.9714 H   0  0  0  0  0  0  0  0  0  0  0  0
   51.3646  161.2708   -6.1941 H   0  0  0  0  0  0  0  0  0  0  0  0
   50.1587  159.1265   -6.6884 H   0  0  0  0  0  0  0  0  0  0  0  0
   50.4950  159.3486   -8.4650 H   0  0  0  0  0  0  0  0  0  0  0  0
   55.6644  159.1464   -1.0457 H   0  0  0  0  0  0  0  0  0  0  0  0
   54.7835  157.7354   -1.6863 H   0  0  0  0  0  0  0  0  0  0  0  0
   53.9259  154.4664   -5.5492 H   0  0  0  0  0  0  0  0  0  0  0  0
   54.3036  153.2596   -4.3101 H   0  0  0  0  0  0  0  0  0  0  0  0
   56.4688  151.3887   -7.9852 H   0  0  0  0  0  0  0  0  0  0  0  0
   56.6339  152.7675   -9.0829 H   0  0  0  0  0  0  0  0  0  0  0  0
   54.2610  152.7553   -9.6215 H   0  0  0  0  0  0  0  0  0  0  0  0
   54.9120  151.1270   -9.8455 H   0  0  0  0  0  0  0  0  0  0  0  0
   52.6924  151.8145   -6.3383 H   0  0  0  0  0  0  0  0  0  0  0  0
   52.9069  153.1909   -7.4299 H   0  0  0  0  0  0  0  0  0  0  0  0
   57.3474  154.4236   -6.9986 H   0  0  0  0  0  0  0  0  0  0  0  0
   57.4170  152.8262   -6.2172 H   0  0  0  0  0  0  0  0  0  0  0  0
   53.6793  160.0089   -2.5276 H   0  0  0  0  0  0  0  0  0  0  0  0
   57.2993  157.7668   -2.5551 H   0  0  0  0  0  0  0  0  0  0  0  0
   53.5465  157.8880   -3.9028 H   0  0  0  0  0  0  0  0  0  0  0  0
   56.2852  158.0209   -5.1198 H   0  0  0  0  0  0  0  0  0  0  0  0
   55.1160  151.6756   -5.9126 H   0  0  0  0  0  0  0  0  0  0  0  0
   52.9590  159.3232   -8.0045 H   0  0  0  0  0  0  0  0  0  0  0  0
   56.5830  153.7977   -4.3217 H   0  0  0  0  0  0  0  0  0  0  0  0
   51.6824  150.6031   -8.1760 H   0  0  0  0  0  0  0  0  0  0  0  0
   52.6210  150.2570   -9.6454 H   0  0  0  0  0  0  0  0  0  0  0  0
   52.0077  151.8982   -9.3493 H   0  0  0  0  0  0  0  0  0  0  0  0
   52.2678  158.2237   -5.4590 H   0  0  0  0  0  0  0  0  0  0  0  0
   56.5853  156.1382   -5.8676 H   0  0  0  0  0  0  0  0  0  0  0  0
  1  2  2  0  0  0  0
  1 13  1  0  0  0  0
  2 14  1  0  0  0  0
  3 15  1  0  0  0  0
  3 23  1  0  0  0  0
  3 25  2  0  0  0  0
  4 16  1  0  0  0  0
  4 24  1  0  0  0  0
  4 26  2  0  0  0  0
  5  6  1  0  0  0  0
  5 18  1  0  0  0  0
  6 18  1  0  0  0  0
  7 13  1  0  0  0  0
  7 14  1  0  0  0  0
  8 17  1  0  0  0  0
  8 19  1  0  0  0  0
  9 10  1  0  0  0  0
  9 21  1  0  0  0  0
 10 22  1  0  0  0  0
 11 17  1  0  0  0  0
 11 22  1  0  0  0  0
 12 19  1  0  0  0  0
 12 21  1  0  0  0  0
 13 15  1  0  0  0  0
 14 16  1  0  0  0  0
 15 16  1  0  0  0  0
 17 21  1  0  0  0  0
 18 23  1  0  0  0  0
 19 24  1  0  0  0  0
 20 22  1  0  0  0  0
  1 27  1  0  0  0  0
  2 28  1  0  0  0  0
  5 29  1  0  0  0  0
  5 30  1  0  0  0  0
  6 31  1  0  0  0  0
  6 32  1  0  0  0  0
  7 33  1  0  0  0  0
  7 34  1  0  0  0  0
  8 35  1  0  0  0  0
  8 36  1  0  0  0  0
  9 37  1  0  0  0  0
  9 38  1  0  0  0  0
 10 39  1  0  0  0  0
 10 40  1  0  0  0  0
 11 41  1  0  0  0  0
 11 42  1  0  0  0  0
 12 43  1  0  0  0  0
 12 44  1  0  0  0  0
 13 45  1  0  0  0  0
 14 46  1  0  0  0  0
 15 47  1  0  0  0  0
 16 48  1  0  0  0  0
 17 49  1  0  0  0  0
 18 50  1  0  0  0  0
 19 51  1  0  0  0  0
 20 52  1  0  0  0  0
 20 53  1  0  0  0  0
 20 54  1  0  0  0  0
 23 55  1  0  0  0  0
 24 56  1  0  0  0  0
M  END
> <FRED Chemgauss4 score>
-2.300846

$$$$
C19168368	P54306310
  -OEChem-05122015083D

 18 18  0     0  0  0  0  0  0999 V2000
   53.3409  156.0495   -3.6541 C   0  0  0  0  0  0  0  0  0  0  0  0
   55.3653  157.2441   -4.1659 C   0  0  0  0  0  0  0  0  0  0  0  0
   53.2955  155.4998   -5.0844 C   0  0  0  0  0  0  0  0  0  0  0  0
   55.3314  156.7011   -5.5991 C   0  0  0  0  0  0  0  0  0  0  0  0
   54.7135  156.3253   -3.2351 N   0  0  0  0  0  0  0  0  0  0  0  0
   53.9894  156.3358   -6.0743 N   0  0  0  0  0  0  0  0  0  0  0  0
   53.2259  157.5338   -6.2985 N   0  0  0  0  0  0  0  0  0  0  0  0
   52.7581  156.9755   -3.5994 H   0  0  0  0  0  0  0  0  0  0  0  0
   52.8737  155.3429   -2.9571 H   0  0  0  0  0  0  0  0  0  0  0  0
   56.4004  157.4224   -3.8491 H   0  0  0  0  0  0  0  0  0  0  0  0
   54.8542  158.2125   -4.1297 H   0  0  0  0  0  0  0  0  0  0  0  0
   53.7488  154.4832   -5.0754 H   0  0  0  0  0  0  0  0  0  0  0  0
   52.2310  155.3391   -5.3788 H   0  0  0  0  0  0  0  0  0  0  0  0
   55.8039  157.4471   -6.2820 H   0  0  0  0  0  0  0  0  0  0  0  0
   55.9952  155.8085   -5.6440 H   0  0  0  0  0  0  0  0  0  0  0  0
   54.6937  156.7562   -2.3099 H   0  0  0  0  0  0  0  0  0  0  0  0
   53.1104  158.0095   -5.4105 H   0  0  0  0  0  0  0  0  0  0  0  0
   52.2997  157.2653   -6.6114 H   0  0  0  0  0  0  0  0  0  0  0  0
  1  3  1  0  0  0  0
  1  5  1  0  0  0  0
  2  4  1  0  0  0  0
  2  5  1  0  0  0  0
  3  6  1  0  0  0  0
  4  6  1  0  0  0  0
  6  7  1  0  0  0  0
  1  8  1  0  0  0  0
  1  9  1  0  0  0  0
  2 10  1  0  0  0  0
  2 11  1  0  0  0  0
  3 12  1  0  0  0  0
  3 13  1  0  0  0  0
  4 14  1  0  0  0  0
  4 15  1  0  0  0  0
  5 16  1  0  0  0  0
  7 17  1  0  0  0  0
  7 18  1  0  0  0  0
M  END
> <FRED Chemgauss4 score>
-2.030305

$$$$
C37072976	P55109964
  -OEChem-05122015083D

 37 39  0     1  0  0  0  0  0999 V2000
   57.9584  157.2028   -6.4922 C   0  0  0  0  0  0  0  0  0  0  0  0
   58.0555  158.0245   -5.3687 C   0  0  0  0  0  0  0  0  0  0  0  0
   55.6880  156.6497   -5.8907 C   0  0  0  0  0  0  0  0  0  0  0  0
   55.7877  157.4547   -4.7493 C   0  0  0  0  0  0  0  0  0  0  0  0
   56.7746  156.5183   -6.7547 C   0  0  0  0  0  0  0  0  0  0  0  0
   56.9726  158.1533   -4.4902 C   0  0  0  0  0  0  0  0  0  0  0  0
   56.3583  151.2579   -8.4817 C   0  0  0  0  0  0  0  0  0  0  0  0
   57.4045  151.8573   -7.8972 C   0  0  0  0  0  0  0  0  0  0  0  0
   54.6151  158.1713   -2.6820 C   0  0  0  0  0  0  0  0  0  0  0  0
   54.9344  151.6355   -8.2029 C   0  0  0  0  0  0  0  0  0  0  0  0
   57.2640  152.9885   -6.9205 C   0  0  0  0  0  0  0  0  0  0  0  0
   55.9327  158.4723   -2.0158 C   0  0  0  0  0  0  0  0  0  0  0  0
   54.7796  152.5503   -6.9835 C   0  0  0  0  0  0  0  0  0  0  0  0
   55.8656  153.6342   -6.9109 C   0  0  2  0  0  0  0  0  0  0  0  0
   55.7133  154.6607   -8.0386 C   0  0  0  0  0  0  0  0  0  0  0  0
   54.6534  157.5731   -3.9232 N   0  0  0  0  0  0  0  0  0  0  0  0
   56.6769  155.6974   -7.8804 N   0  0  0  0  0  0  0  0  0  0  0  0
   53.5551  158.3515   -2.0777 O   0  0  0  0  0  0  0  0  0  0  0  0
   57.0952  159.2827   -3.1213 S   0  0  0  0  0  0  0  0  0  0  0  0
   58.8171  157.0960   -7.1501 H   0  0  0  0  0  0  0  0  0  0  0  0
   58.9879  158.5541   -5.1864 H   0  0  0  0  0  0  0  0  0  0  0  0
   54.7585  156.1281   -6.1111 H   0  0  0  0  0  0  0  0  0  0  0  0
   56.5355  150.4598   -9.1974 H   0  0  0  0  0  0  0  0  0  0  0  0
   58.4096  151.5173   -8.1309 H   0  0  0  0  0  0  0  0  0  0  0  0
   54.5120  152.1376   -9.0805 H   0  0  0  0  0  0  0  0  0  0  0  0
   54.3570  150.7162   -8.0500 H   0  0  0  0  0  0  0  0  0  0  0  0
   57.4911  152.6169   -5.9105 H   0  0  0  0  0  0  0  0  0  0  0  0
   58.0325  153.7396   -7.1564 H   0  0  0  0  0  0  0  0  0  0  0  0
   55.7462  159.1024   -1.1398 H   0  0  0  0  0  0  0  0  0  0  0  0
   56.3798  157.5342   -1.6717 H   0  0  0  0  0  0  0  0  0  0  0  0
   53.7846  153.0287   -7.0136 H   0  0  0  0  0  0  0  0  0  0  0  0
   54.7902  151.9356   -6.0678 H   0  0  0  0  0  0  0  0  0  0  0  0
   55.7423  154.1715   -5.9538 H   0  0  0  0  0  0  0  0  0  0  0  0
   54.7190  155.0847   -7.9903 H   0  0  0  0  0  0  0  0  0  0  0  0
   55.8711  154.1666   -8.9878 H   0  0  0  0  0  0  0  0  0  0  0  0
   53.7833  157.1817   -4.2744 H   0  0  0  0  0  0  0  0  0  0  0  0
   57.3524  155.8667   -8.6302 H   0  0  0  0  0  0  0  0  0  0  0  0
  1  2  1  0  0  0  0
  1  5  2  0  0  0  0
  2  6  2  0  0  0  0
  3  4  2  0  0  0  0
  3  5  1  0  0  0  0
  4  6  1  0  0  0  0
  4 16  1  0  0  0  0
  5 17  1  0  0  0  0
  6 19  1  0  0  0  0
  7  8  2  0  0  0  0
  7 10  1  0  0  0  0
  8 11  1  0  0  0  0
  9 12  1  0  0  0  0
  9 16  1  0  0  0  0
  9 18  2  0  0  0  0
 10 13  1  0  0  0  0
 11 14  1  0  0  0  0
 12 19  1  0  0  0  0
 13 14  1  0  0  0  0
 14 15  1  0  0  0  0
 15 17  1  0  0  0  0
  1 20  1  0  0  0  0
  2 21  1  0  0  0  0
  3 22  1  0  0  0  0
  7 23  1  0  0  0  0
  8 24  1  0  0  0  0
 10 25  1  0  0  0  0
 10 26  1  0  0  0  0
 11 27  1  0  0  0  0
 11 28  1  0  0  0  0
 12 29  1  0  0  0  0
 12 30  1  0  0  0  0
 13 31  1  0  0  0  0
 13 32  1  0  0  0  0
 14 33  1  0  0  0  0
 15 34  1  0  0  0  0
 15 35  1  0  0  0  0
 16 36  1  0  0  0  0
 17 37  1  0  0  0  0
M  END
> <FRED Chemgauss4 score>
-1.993356

$$$$
C95616414	P150349639
  -OEChem-05122015083D

 18 18  0     1  0  0  0  0  0999 V2000
   55.0693  157.9673   -4.6269 C   0  0  0  0  0  0  0  0  0  0  0  0
   54.6135  158.6283   -3.3337 C   0  0  0  0  0  0  0  0  0  0  0  0
   54.4217  156.3539   -2.9486 C   0  0  0  0  0  0  0  0  0  0  0  0
   55.0184  156.4657   -4.3446 C   0  0  1  0  0  0  0  0  0  0  0  0
   54.8256  157.6053   -2.3128 N   0  0  0  0  0  0  0  0  0  0  0  0
   52.9160  156.2236   -5.3030 N   0  0  0  0  0  0  0  0  0  0  0  0
   54.2587  155.7374   -5.3229 N   0  0  0  0  0  0  0  0  0  0  0  0
   54.4284  158.2720   -5.4619 H   0  0  0  0  0  0  0  0  0  0  0  0
   56.0955  158.2622   -4.8778 H   0  0  0  0  0  0  0  0  0  0  0  0
   55.1744  159.5422   -3.1164 H   0  0  0  0  0  0  0  0  0  0  0  0
   53.5501  158.8885   -3.3852 H   0  0  0  0  0  0  0  0  0  0  0  0
   53.3267  156.2908   -2.9681 H   0  0  0  0  0  0  0  0  0  0  0  0
   54.7977  155.4806   -2.4059 H   0  0  0  0  0  0  0  0  0  0  0  0
   56.0418  156.0802   -4.3346 H   0  0  0  0  0  0  0  0  0  0  0  0
   55.8233  157.5569   -2.1017 H   0  0  0  0  0  0  0  0  0  0  0  0
   52.8466  157.0027   -4.6488 H   0  0  0  0  0  0  0  0  0  0  0  0
   52.6920  156.6090   -6.2196 H   0  0  0  0  0  0  0  0  0  0  0  0
   54.2580  154.7454   -5.0864 H   0  0  0  0  0  0  0  0  0  0  0  0
  1  2  1  0  0  0  0
  1  4  1  0  0  0  0
  2  5  1  0  0  0  0
  3  4  1  0  0  0  0
  3  5  1  0  0  0  0
  4  7  1  0  0  0  0
  6  7  1  0  0  0  0
  1  8  1  0  0  0  0
  1  9  1  0  0  0  0
  2 10  1  0  0  0  0
  2 11  1  0  0  0  0
  3 12  1  0  0  0  0
  3 13  1  0  0  0  0
  4 14  1  0  0  0  0
  5 15  1  0  0  0  0
  6 16  1  0  0  0  0
  6 17  1  0  0  0  0
  7 18  1  0  0  0  0
M  END
> <FRED Chemgauss4 score>
-1.983832

$$$$
C91692967	P143547969
  -OEChem-05122015083D

 15 15  0     0  0  0  0  0  0999 V2000
   54.6401  156.1319   -2.8105 C   0  0  0  0  0  0  0  0  0  0  0  0
   54.4148  157.8688   -3.9210 C   0  0  0  0  0  0  0  0  0  0  0  0
   53.6531  156.5347   -3.9167 C   0  0  0  0  0  0  0  0  0  0  0  0
   54.8333  157.5777   -2.5248 N   0  0  0  0  0  0  0  0  0  0  0  0
   53.0131  156.1721   -6.1347 N   0  0  0  0  0  0  0  0  0  0  0  0
   53.9586  155.7965   -5.1332 N   0  0  0  0  0  0  0  0  0  0  0  0
   54.2102  155.5612   -1.9815 H   0  0  0  0  0  0  0  0  0  0  0  0
   55.5658  155.6360   -3.1283 H   0  0  0  0  0  0  0  0  0  0  0  0
   55.2649  157.9511   -4.6098 H   0  0  0  0  0  0  0  0  0  0  0  0
   53.7948  158.7639   -4.0297 H   0  0  0  0  0  0  0  0  0  0  0  0
   52.6045  156.5809   -3.6250 H   0  0  0  0  0  0  0  0  0  0  0  0
   54.1763  157.9368   -1.8311 H   0  0  0  0  0  0  0  0  0  0  0  0
   52.4062  156.9063   -5.7710 H   0  0  0  0  0  0  0  0  0  0  0  0
   53.5139  156.5880   -6.9189 H   0  0  0  0  0  0  0  0  0  0  0  0
   53.8772  154.7965   -4.9538 H   0  0  0  0  0  0  0  0  0  0  0  0
  1  3  1  0  0  0  0
  1  4  1  0  0  0  0
  2  3  1  0  0  0  0
  2  4  1  0  0  0  0
  3  6  1  0  0  0  0
  5  6  1  0  0  0  0
  1  7  1  0  0  0  0
  1  8  1  0  0  0  0
  2  9  1  0  0  0  0
  2 10  1  0  0  0  0
  3 11  1  0  0  0  0
  4 12  1  0  0  0  0
  5 13  1  0  0  0  0
  5 14  1  0  0  0  0
  6 15  1  0  0  0  0
M  END
> <FRED Chemgauss4 score>
-1.967195

$$$$
C82095284	P128109048
  -OEChem-05122015083D

 22 23  0     1  0  0  0  0  0999 V2000
   55.5824  155.5632   -4.5056 C   0  0  0  0  0  0  0  0  0  0  0  0
   55.2755  156.4066   -3.2677 C   0  0  0  0  0  0  0  0  0  0  0  0
   55.8077  157.8451   -5.0091 C   0  0  0  0  0  0  0  0  0  0  0  0
   53.5720  157.6614   -4.4358 C   0  0  0  0  0  0  0  0  0  0  0  0
   55.3003  156.5574   -5.6359 C   0  0  2  0  0  0  0  0  0  0  0  0
   53.7844  156.8002   -5.6916 C   0  0  2  0  0  0  0  0  0  0  0  0
   54.9253  157.7467   -3.8138 N   0  0  1  0  0  0  0  0  0  0  0  0
   51.9594  157.4202   -7.0149 N   0  0  0  0  0  0  0  0  0  0  0  0
   53.3777  157.5217   -6.8915 N   0  0  0  0  0  0  0  0  0  0  0  0
   56.6353  155.2590   -4.5107 H   0  0  0  0  0  0  0  0  0  0  0  0
   54.9577  154.6666   -4.5666 H   0  0  0  0  0  0  0  0  0  0  0  0
   54.4708  155.9830   -2.6567 H   0  0  0  0  0  0  0  0  0  0  0  0
   56.1628  156.4874   -2.6290 H   0  0  0  0  0  0  0  0  0  0  0  0
   56.8708  157.8238   -4.7418 H   0  0  0  0  0  0  0  0  0  0  0  0
   55.6109  158.7470   -5.5997 H   0  0  0  0  0  0  0  0  0  0  0  0
   53.2259  158.6749   -4.6757 H   0  0  0  0  0  0  0  0  0  0  0  0
   52.8307  157.2271   -3.7550 H   0  0  0  0  0  0  0  0  0  0  0  0
   55.7574  156.2751   -6.5872 H   0  0  0  0  0  0  0  0  0  0  0  0
   53.2256  155.8594   -5.6299 H   0  0  0  0  0  0  0  0  0  0  0  0
   51.5813  156.9312   -6.2040 H   0  0  0  0  0  0  0  0  0  0  0  0
   51.5606  158.3576   -6.9856 H   0  0  0  0  0  0  0  0  0  0  0  0
   53.8169  157.0979   -7.7072 H   0  0  0  0  0  0  0  0  0  0  0  0
  1  2  1  0  0  0  0
  1  5  1  0  0  0  0
  2  7  1  0  0  0  0
  3  5  1  0  0  0  0
  3  7  1  0  0  0  0
  4  6  1  0  0  0  0
  4  7  1  0  0  0  0
  5  6  1  0  0  0  0
  6  9  1  0  0  0  0
  8  9  1  0  0  0  0
  1 10  1  0  0  0  0
  1 11  1  0  0  0  0
  2 12  1  0  0  0  0
  2 13  1  0  0  0  0
  3 14  1  0  0  0  0
  3 15  1  0  0  0  0
  4 16  1  0  0  0  0
  4 17  1  0  0  0  0
  5 18  1  0  0  0  0
  6 19  1  0  0  0  0
  8 20  1  0  0  0  0
  8 21  1  0  0  0  0
  9 22  1  0  0  0  0
M  END
> <FRED Chemgauss4 score>
-1.934458

$$$$
C79783087	P124652744
  -OEChem-05122015083D

 37 37  0     0  0  0  0  0  0999 V2000
   54.9862  155.8354   -6.9684 C   0  0  0  0  0  0  0  0  0  0  0  0
   55.4686  154.4321   -5.0617 C   0  0  0  0  0  0  0  0  0  0  0  0
   56.2226  156.4635   -6.8189 C   0  0  0  0  0  0  0  0  0  0  0  0
   56.7051  155.0603   -4.9123 C   0  0  0  0  0  0  0  0  0  0  0  0
   54.6092  154.8197   -6.0897 C   0  0  0  0  0  0  0  0  0  0  0  0
   57.0820  156.0760   -5.7910 C   0  0  0  0  0  0  0  0  0  0  0  0
   52.1928  154.8084   -5.4868 C   0  0  0  0  0  0  0  0  0  0  0  0
   57.4989  158.9594   -0.6860 C   0  0  0  0  0  0  0  0  0  0  0  0
   53.2872  154.1483   -6.2495 C   0  0  0  0  0  0  0  0  0  0  0  0
   57.5277  159.8073   -3.3334 C   0  0  0  0  0  0  0  0  0  0  0  0
   57.5558  158.3888   -3.8621 C   0  0  0  0  0  0  0  0  0  0  0  0
   58.2833  156.6863   -5.6459 N   0  5  0  0  0  0  0  0  0  0  0  0
   51.9280  154.3551   -4.2699 N   0  0  0  0  0  0  0  0  0  0  0  0
   51.5432  155.8022   -6.0755 N   0  3  0  0  0  0  0  0  0  0  0  0
   56.6786  161.3386   -1.3926 O   0  0  0  0  0  0  0  0  0  0  0  0
   55.3007  159.3289   -2.0512 O   0  0  0  0  0  0  0  0  0  0  0  0
   57.7121  159.1195   -6.3008 O   0  0  0  0  0  0  0  0  0  0  0  0
   59.7964  158.6919   -5.0425 O   0  0  0  0  0  0  0  0  0  0  0  0
   56.5933  159.9600   -1.8443 S   0  0  0  0  0  0  0  0  0  0  0  0
   58.4433  158.2466   -5.3807 S   0  0  0  0  0  0  0  0  0  0  0  0
   54.3226  156.1436   -7.7720 H   0  0  0  0  0  0  0  0  0  0  0  0
   55.1831  153.6417   -4.3726 H   0  0  0  0  0  0  0  0  0  0  0  0
   56.4987  157.2535   -7.5140 H   0  0  0  0  0  0  0  0  0  0  0  0
   57.3620  154.7444   -4.1047 H   0  0  0  0  0  0  0  0  0  0  0  0
   56.9853  158.9962    0.2760 H   0  0  0  0  0  0  0  0  0  0  0  0
   57.5290  157.9366   -1.0645 H   0  0  0  0  0  0  0  0  0  0  0  0
   58.5080  159.3643   -0.5967 H   0  0  0  0  0  0  0  0  0  0  0  0
   53.3577  153.0900   -5.9436 H   0  0  0  0  0  0  0  0  0  0  0  0
   53.0112  154.1003   -7.3171 H   0  0  0  0  0  0  0  0  0  0  0  0
   58.5318  160.1872   -3.1237 H   0  0  0  0  0  0  0  0  0  0  0  0
   57.0466  160.4703   -4.0591 H   0  0  0  0  0  0  0  0  0  0  0  0
   56.5385  158.0467   -4.0754 H   0  0  0  0  0  0  0  0  0  0  0  0
   58.0170  157.6951   -3.1533 H   0  0  0  0  0  0  0  0  0  0  0  0
   52.4607  153.5844   -3.8823 H   0  0  0  0  0  0  0  0  0  0  0  0
   51.1939  154.7679   -3.7054 H   0  0  0  0  0  0  0  0  0  0  0  0
   51.7836  156.1018   -7.0139 H   0  0  0  0  0  0  0  0  0  0  0  0
   50.7901  156.2803   -5.5934 H   0  0  0  0  0  0  0  0  0  0  0  0
  1  3  2  0  0  0  0
  1  5  1  0  0  0  0
  2  4  1  0  0  0  0
  2  5  2  0  0  0  0
  3  6  1  0  0  0  0
  4  6  2  0  0  0  0
  5  9  1  0  0  0  0
  6 12  1  0  0  0  0
  7  9  1  0  0  0  0
  7 13  1  0  0  0  0
  7 14  2  0  0  0  0
  8 19  1  0  0  0  0
 10 11  1  0  0  0  0
 10 19  1  0  0  0  0
 11 20  1  0  0  0  0
 12 20  1  0  0  0  0
 15 19  2  0  0  0  0
 16 19  2  0  0  0  0
 17 20  2  0  0  0  0
 18 20  2  0  0  0  0
  1 21  1  0  0  0  0
  2 22  1  0  0  0  0
  3 23  1  0  0  0  0
  4 24  1  0  0  0  0
  8 25  1  0  0  0  0
  8 26  1  0  0  0  0
  8 27  1  0  0  0  0
  9 28  1  0  0  0  0
  9 29  1  0  0  0  0
 10 30  1  0  0  0  0
 10 31  1  0  0  0  0
 11 32  1  0  0  0  0
 11 33  1  0  0  0  0
 13 34  1  0  0  0  0
 13 35  1  0  0  0  0
 14 36  1  0  0  0  0
 14 37  1  0  0  0  0
M  CHG  2  12  -1  14   1
M  END
> <FRED Chemgauss4 score>
-1.671414

$$$$
C89197721	P139498389
  -OEChem-05122015083D

 46 48  0     1  0  0  0  0  0999 V2000
   55.3083  157.3536   -6.2476 C   0  0  0  0  0  0  0  0  0  0  0  0
   55.7457  157.3330   -4.9233 C   0  0  0  0  0  0  0  0  0  0  0  0
   54.0990  157.9679   -6.5732 C   0  0  0  0  0  0  0  0  0  0  0  0
   53.7645  158.5407   -4.2501 C   0  0  0  0  0  0  0  0  0  0  0  0
   54.9738  157.9265   -3.9245 C   0  0  0  0  0  0  0  0  0  0  0  0
   53.3271  158.5614   -5.5744 C   0  0  0  0  0  0  0  0  0  0  0  0
   57.6830  159.1459   -0.4690 C   0  0  0  0  0  0  0  0  0  0  0  0
   58.6978  159.9960   -0.8557 C   0  0  0  0  0  0  0  0  0  0  0  0
   57.2390  160.8216    0.8744 C   0  0  0  0  0  0  0  0  0  0  0  0
   55.4311  157.9043   -2.5443 C   0  0  0  0  0  0  0  0  0  0  0  0
   51.5202  159.2949   -7.1623 C   0  0  0  0  0  0  0  0  0  0  0  0
   50.1691  161.6135   -8.8408 C   0  0  0  0  0  0  0  0  0  0  0  0
   49.6090  160.2634   -8.4618 C   0  0  0  0  0  0  0  0  0  0  0  0
   50.2228  162.3175   -7.5038 C   0  0  0  0  0  0  0  0  0  0  0  0
   50.2171  160.0278   -7.0923 C   0  0  2  0  0  0  0  0  0  0  0  0
   59.7568  159.8145   -1.8687 C   0  0  0  0  0  0  0  0  0  0  0  0
   56.5848  161.6460    1.9138 C   0  0  0  0  0  0  0  0  0  0  0  0
   57.4196  157.7755   -1.0230 C   0  0  0  0  0  0  0  0  0  0  0  0
   56.8458  159.6174    0.5232 N   0  0  0  0  0  0  0  0  0  0  0  0
   52.1005  159.1847   -5.9050 N   0  0  0  0  0  0  0  0  0  0  0  0
   56.8129  157.8293   -2.3336 N   0  0  0  0  0  0  0  0  0  0  0  0
   54.6130  157.9303   -1.6076 O   0  0  0  0  0  0  0  0  0  0  0  0
   51.9479  158.8749   -8.2326 O   0  0  0  0  0  0  0  0  0  0  0  0
   50.5038  161.3087   -6.5243 O   0  0  0  0  0  0  0  0  0  0  0  0
   58.6086  161.4485    0.0520 S   0  0  0  0  0  0  0  0  0  0  0  0
   55.9094  156.8918   -7.0254 H   0  0  0  0  0  0  0  0  0  0  0  0
   56.6891  156.8505   -4.6814 H   0  0  0  0  0  0  0  0  0  0  0  0
   53.7675  157.9776   -7.6087 H   0  0  0  0  0  0  0  0  0  0  0  0
   53.1618  159.0028   -3.4708 H   0  0  0  0  0  0  0  0  0  0  0  0
   51.1814  161.4970   -9.2455 H   0  0  0  0  0  0  0  0  0  0  0  0
   49.5655  162.1465   -9.5800 H   0  0  0  0  0  0  0  0  0  0  0  0
   48.5183  160.3346   -8.3742 H   0  0  0  0  0  0  0  0  0  0  0  0
   49.8420  159.4839   -9.1933 H   0  0  0  0  0  0  0  0  0  0  0  0
   50.9930  163.0930   -7.4663 H   0  0  0  0  0  0  0  0  0  0  0  0
   49.2568  162.7693   -7.2534 H   0  0  0  0  0  0  0  0  0  0  0  0
   49.5439  159.4731   -6.4291 H   0  0  0  0  0  0  0  0  0  0  0  0
   59.4264  160.1741   -2.8567 H   0  0  0  0  0  0  0  0  0  0  0  0
   60.6790  160.3592   -1.6045 H   0  0  0  0  0  0  0  0  0  0  0  0
   60.0479  158.7559   -1.9768 H   0  0  0  0  0  0  0  0  0  0  0  0
   57.0276  161.4561    2.9040 H   0  0  0  0  0  0  0  0  0  0  0  0
   56.6789  162.7237    1.7028 H   0  0  0  0  0  0  0  0  0  0  0  0
   55.5041  161.4394    1.9817 H   0  0  0  0  0  0  0  0  0  0  0  0
   58.3523  157.2069   -1.1062 H   0  0  0  0  0  0  0  0  0  0  0  0
   56.7505  157.2085   -0.3673 H   0  0  0  0  0  0  0  0  0  0  0  0
   51.5951  159.5948   -5.1224 H   0  0  0  0  0  0  0  0  0  0  0  0
   57.4327  157.7468   -3.1329 H   0  0  0  0  0  0  0  0  0  0  0  0
  1  2  2  0  0  0  0
  1  3  1  0  0  0  0
  2  5  1  0  0  0  0
  3  6  2  0  0  0  0
  4  5  2  0  0  0  0
  4  6  1  0  0  0  0
  5 10  1  0  0  0  0
  6 20  1  0  0  0  0
  7  8  2  0  0  0  0
  7 18  1  0  0  0  0
  7 19  1  0  0  0  0
  8 16  1  0  0  0  0
  8 25  1  0  0  0  0
  9 17  1  0  0  0  0
  9 19  2  0  0  0  0
  9 25  1  0  0  0  0
 10 21  1  0  0  0  0
 10 22  2  0  0  0  0
 11 15  1  0  0  0  0
 11 20  1  0  0  0  0
 11 23  2  0  0  0  0
 12 13  1  0  0  0  0
 12 14  1  0  0  0  0
 13 15  1  0  0  0  0
 14 24  1  0  0  0  0
 15 24  1  0  0  0  0
 18 21  1  0  0  0  0
  1 26  1  0  0  0  0
  2 27  1  0  0  0  0
  3 28  1  0  0  0  0
  4 29  1  0  0  0  0
 12 30  1  0  0  0  0
 12 31  1  0  0  0  0
 13 32  1  0  0  0  0
 13 33  1  0  0  0  0
 14 34  1  0  0  0  0
 14 35  1  0  0  0  0
 15 36  1  0  0  0  0
 16 37  1  0  0  0  0
 16 38  1  0  0  0  0
 16 39  1  0  0  0  0
 17 40  1  0  0  0  0
 17 41  1  0  0  0  0
 17 42  1  0  0  0  0
 18 43  1  0  0  0  0
 18 44  1  0  0  0  0
 20 45  1  0  0  0  0
 21 46  1  0  0  0  0
M  END
> <FRED Chemgauss4 score>
-1.650691

$$$$
C95116282	P149156999
  -OEChem-05122015083D

 13 12  0     0  0  0  0  0  0999 V2000
   54.0086  156.6250   -3.5192 C   0  0  0  0  0  0  0  0  0  0  0  0
   52.8468  155.6863   -3.8095 C   0  0  0  0  0  0  0  0  0  0  0  0
   54.5076  156.7334   -2.3166 N   0  0  0  0  0  0  0  0  0  0  0  0
   53.5547  157.7948   -5.5365 N   0  0  0  0  0  0  0  0  0  0  0  0
   54.4693  157.3306   -4.6133 N   0  0  0  0  0  0  0  0  0  0  0  0
   55.5629  157.6470   -2.2759 O   0  0  0  0  0  0  0  0  0  0  0  0
   51.9012  156.2188   -3.6719 H   0  0  0  0  0  0  0  0  0  0  0  0
   52.8872  155.3126   -4.8365 H   0  0  0  0  0  0  0  0  0  0  0  0
   52.8869  154.8315   -3.1280 H   0  0  0  0  0  0  0  0  0  0  0  0
   54.0277  157.9043   -6.4326 H   0  0  0  0  0  0  0  0  0  0  0  0
   52.8460  157.0764   -5.6787 H   0  0  0  0  0  0  0  0  0  0  0  0
   55.4368  157.6229   -4.7053 H   0  0  0  0  0  0  0  0  0  0  0  0
   55.8157  157.6120   -1.3379 H   0  0  0  0  0  0  0  0  0  0  0  0
  1  2  1  0  0  0  0
  1  3  2  0  0  0  0
  1  5  1  0  0  0  0
  3  6  1  0  0  0  0
  4  5  1  0  0  0  0
  2  7  1  0  0  0  0
  2  8  1  0  0  0  0
  2  9  1  0  0  0  0
  4 10  1  0  0  0  0
  4 11  1  0  0  0  0
  5 12  1  0  0  0  0
  6 13  1  0  0  0  0
M  END
> <FRED Chemgauss4 score>
-1.590829

$$$$
C93934857	P147229780
  -OEChem-05122015083D

 42 42  0     1  0  0  0  0  0999 V2000
   54.6089  151.5473   -7.8472 C   0  0  0  0  0  0  0  0  0  0  0  0
   53.7295  155.7858   -3.4585 C   0  0  0  0  0  0  0  0  0  0  0  0
   55.3977  154.9419   -5.5846 C   0  0  0  0  0  0  0  0  0  0  0  0
   53.8351  153.2041   -6.1622 C   0  0  0  0  0  0  0  0  0  0  0  0
   56.5302  154.0613   -6.1061 C   0  0  0  0  0  0  0  0  0  0  0  0
   55.0074  152.3637   -6.6625 C   0  0  2  0  0  0  0  0  0  0  0  0
   52.0293  154.0697   -4.1309 C   0  0  0  0  0  0  0  0  0  0  0  0
   56.6400  158.9019   -0.6424 C   0  0  0  0  0  0  0  0  0  0  0  0
   54.5040  158.9485   -2.7859 C   0  0  0  0  0  0  0  0  0  0  0  0
   53.3910  157.9951   -2.3718 C   0  0  0  0  0  0  0  0  0  0  0  0
   54.8380  159.9711   -1.7064 C   0  0  0  0  0  0  0  0  0  0  0  0
   53.1963  154.9261   -4.5970 C   0  0  2  0  0  0  0  0  0  0  0  0
   54.2964  154.1015   -5.0931 N   0  0  2  0  0  0  0  0  0  0  0  0
   54.1030  152.2492   -8.9062 N   0  0  0  0  0  0  0  0  0  0  0  0
   53.0924  157.0170   -3.3917 N   0  0  0  0  0  0  0  0  0  0  0  0
   54.5966  155.4011   -2.6767 O   0  0  0  0  0  0  0  0  0  0  0  0
   56.0558  153.2014   -7.1433 O   0  0  0  0  0  0  0  0  0  0  0  0
   55.2742  159.2815   -0.5425 O   0  0  0  0  0  0  0  0  0  0  0  0
   54.7699  149.8849   -7.8686 S   0  0  0  0  0  0  0  0  0  0  0  0
   55.7826  155.5747   -4.7768 H   0  0  0  0  0  0  0  0  0  0  0  0
   55.0447  155.5974   -6.3915 H   0  0  0  0  0  0  0  0  0  0  0  0
   53.4061  153.7881   -6.9883 H   0  0  0  0  0  0  0  0  0  0  0  0
   53.0474  152.5390   -5.7875 H   0  0  0  0  0  0  0  0  0  0  0  0
   57.3237  154.6859   -6.5288 H   0  0  0  0  0  0  0  0  0  0  0  0
   56.9744  153.4575   -5.3053 H   0  0  0  0  0  0  0  0  0  0  0  0
   55.3936  151.6888   -5.8896 H   0  0  0  0  0  0  0  0  0  0  0  0
   52.3225  153.4177   -3.3000 H   0  0  0  0  0  0  0  0  0  0  0  0
   51.1951  154.6896   -3.7862 H   0  0  0  0  0  0  0  0  0  0  0  0
   51.6664  153.4303   -4.9429 H   0  0  0  0  0  0  0  0  0  0  0  0
   56.9402  158.3758    0.2671 H   0  0  0  0  0  0  0  0  0  0  0  0
   57.2576  159.7928   -0.7814 H   0  0  0  0  0  0  0  0  0  0  0  0
   56.7626  158.2383   -1.5017 H   0  0  0  0  0  0  0  0  0  0  0  0
   55.4071  158.3711   -3.0198 H   0  0  0  0  0  0  0  0  0  0  0  0
   54.2350  159.4724   -3.7118 H   0  0  0  0  0  0  0  0  0  0  0  0
   53.6847  157.4410   -1.4749 H   0  0  0  0  0  0  0  0  0  0  0  0
   52.4678  158.5402   -2.1503 H   0  0  0  0  0  0  0  0  0  0  0  0
   55.6396  160.6423   -2.0299 H   0  0  0  0  0  0  0  0  0  0  0  0
   53.9566  160.5665   -1.4475 H   0  0  0  0  0  0  0  0  0  0  0  0
   52.8847  155.5700   -5.4266 H   0  0  0  0  0  0  0  0  0  0  0  0
   54.0130  153.2590   -8.8680 H   0  0  0  0  0  0  0  0  0  0  0  0
   53.7996  151.7993   -9.7640 H   0  0  0  0  0  0  0  0  0  0  0  0
   52.4141  157.2680   -4.1049 H   0  0  0  0  0  0  0  0  0  0  0  0
  1  6  1  0  0  0  0
  1 14  1  0  0  0  0
  1 19  2  0  0  0  0
  2 12  1  0  0  0  0
  2 15  1  0  0  0  0
  2 16  2  0  0  0  0
  3  5  1  0  0  0  0
  3 13  1  0  0  0  0
  4  6  1  0  0  0  0
  4 13  1  0  0  0  0
  5 17  1  0  0  0  0
  6 17  1  0  0  0  0
  7 12  1  0  0  0  0
  8 18  1  0  0  0  0
  9 10  1  0  0  0  0
  9 11  1  0  0  0  0
 10 15  1  0  0  0  0
 11 18  1  0  0  0  0
 12 13  1  0  0  0  0
  3 20  1  0  0  0  0
  3 21  1  0  0  0  0
  4 22  1  0  0  0  0
  4 23  1  0  0  0  0
  5 24  1  0  0  0  0
  5 25  1  0  0  0  0
  6 26  1  0  0  0  0
  7 27  1  0  0  0  0
  7 28  1  0  0  0  0
  7 29  1  0  0  0  0
  8 30  1  0  0  0  0
  8 31  1  0  0  0  0
  8 32  1  0  0  0  0
  9 33  1  0  0  0  0
  9 34  1  0  0  0  0
 10 35  1  0  0  0  0
 10 36  1  0  0  0  0
 11 37  1  0  0  0  0
 11 38  1  0  0  0  0
 12 39  1  0  0  0  0
 14 40  1  0  0  0  0
 14 41  1  0  0  0  0
 15 42  1  0  0  0  0
M  END
> <FRED Chemgauss4 score>
-1.286783

$$$$
C38700903	P81224313
  -OEChem-05122015083D

 12 12  0     0  0  0  0  0  0999 V2000
   54.8702  155.7787   -2.2758 C   0  0  0  0  0  0  0  0  0  0  0  0
   52.9880  155.9417   -4.0552 C   0  0  0  0  0  0  0  0  0  0  0  0
   53.9036  156.6011   -2.0076 N   0  0  0  0  0  0  0  0  0  0  0  0
   52.8724  156.6901   -2.9827 N   0  0  0  0  0  0  0  0  0  0  0  0
   55.0032  154.9961   -3.3840 N   0  0  0  0  0  0  0  0  0  0  0  0
   54.0359  155.0799   -4.2993 N   0  0  0  0  0  0  0  0  0  0  0  0
   52.0494  155.9520   -5.0559 N   0  0  0  0  0  0  0  0  0  0  0  0
   55.7027  155.6573   -1.5654 H   0  0  0  0  0  0  0  0  0  0  0  0
   55.7850  154.3685   -3.5340 H   0  0  0  0  0  0  0  0  0  0  0  0
   54.0984  154.5190   -5.1417 H   0  0  0  0  0  0  0  0  0  0  0  0
   51.2619  156.5484   -4.9546 H   0  0  0  0  0  0  0  0  0  0  0  0
   52.1944  155.3627   -5.8419 H   0  0  0  0  0  0  0  0  0  0  0  0
  1  3  2  0  0  0  0
  1  5  1  0  0  0  0
  2  4  2  0  0  0  0
  2  6  1  0  0  0  0
  2  7  1  0  0  0  0
  3  4  1  0  0  0  0
  5  6  1  0  0  0  0
  1  8  1  0  0  0  0
  5  9  1  0  0  0  0
  6 10  1  0  0  0  0
  7 11  1  0  0  0  0
  7 12  1  0  0  0  0
M  END
> <FRED Chemgauss4 score>
-0.787524

$$$$
C97950844	P155523258
  -OEChem-05122015083D

 11 11  0     1  0  0  0  0  0999 V2000
   54.7310  158.2521   -3.9445 C   0  0  2  0  0  0  0  0  0  0  0  0
   54.8701  156.9356   -3.2875 N   0  0  0  0  0  0  0  0  0  0  0  0
   55.2804  157.1071   -2.1110 N   0  0  0  0  0  0  0  0  0  0  0  0
   55.1168  159.2480   -2.9529 N   0  0  0  0  0  0  0  0  0  0  0  0
   55.4305  158.4322   -1.8954 N   0  0  0  0  0  0  0  0  0  0  0  0
   53.3808  158.5156   -4.4281 N   0  0  0  0  0  0  0  0  0  0  0  0
   55.4238  158.2854   -4.7938 H   0  0  0  0  0  0  0  0  0  0  0  0
   54.2974  159.7863   -2.6739 H   0  0  0  0  0  0  0  0  0  0  0  0
   55.7487  158.7721   -0.9970 H   0  0  0  0  0  0  0  0  0  0  0  0
   52.8608  157.7550   -4.8114 H   0  0  0  0  0  0  0  0  0  0  0  0
   53.1007  159.4659   -4.5488 H   0  0  0  0  0  0  0  0  0  0  0  0
  1  2  1  0  0  0  0
  1  4  1  0  0  0  0
  1  6  1  0  0  0  0
  2  3  2  0  0  0  0
  3  5  1  0  0  0  0
  4  5  1  0  0  0  0
  1  7  1  0  0  0  0
  4  8  1  0  0  0  0
  5  9  1  0  0  0  0
  6 10  1  0  0  0  0
  6 11  1  0  0  0  0
M  END
> <FRED Chemgauss4 score>
-0.767924

$$$$
C88421206	P138299941
  -OEChem-05122015083D

 34 34  0     1  0  0  0  0  0999 V2000
   55.8728  160.3681   -2.5315 C   0  0  0  0  0  0  0  0  0  0  0  0
   57.1919  160.5378   -2.1259 C   0  0  0  0  0  0  0  0  0  0  0  0
   55.4097  159.0985   -2.8586 C   0  0  0  0  0  0  0  0  0  0  0  0
   58.0010  159.4147   -2.0645 C   0  0  0  0  0  0  0  0  0  0  0  0
   56.2987  158.0399   -2.7646 C   0  0  0  0  0  0  0  0  0  0  0  0
   54.0260  158.9312   -3.2808 C   0  0  0  0  0  0  0  0  0  0  0  0
   59.4223  159.5596   -1.6334 C   0  0  0  0  0  0  0  0  0  0  0  0
   54.7248  156.1665   -2.3483 C   0  0  0  0  0  0  0  0  0  0  0  0
   55.8445  156.4089   -5.5135 C   0  0  0  0  0  0  0  0  0  0  0  0
   56.4311  155.9965   -4.1671 C   0  0  0  0  0  0  0  0  0  0  0  0
   56.3927  155.6094   -6.6789 C   0  0  0  0  0  0  0  0  0  0  0  0
   57.5870  158.1657   -2.3745 N   0  0  0  0  0  0  0  0  0  0  0  0
   53.0999  159.2959   -2.4132 N   0  0  0  0  0  0  0  0  0  0  0  0
   53.6791  158.4132   -4.5313 N   0  0  0  0  0  0  0  0  0  0  0  0
   55.8388  156.7565   -3.0932 N   0  0  3  0  0  0  0  0  0  0  0  0
   51.8089  159.0960   -2.9127 O   0  0  0  0  0  0  0  0  0  0  0  0
   55.8572  156.0172   -7.8492 F   0  0  0  0  0  0  0  0  0  0  0  0
   57.7328  155.7654   -6.7666 F   0  0  0  0  0  0  0  0  0  0  0  0
   56.1458  154.2900   -6.5434 F   0  0  0  0  0  0  0  0  0  0  0  0
   55.2158  161.2320   -2.5887 H   0  0  0  0  0  0  0  0  0  0  0  0
   57.5650  161.5228   -1.8670 H   0  0  0  0  0  0  0  0  0  0  0  0
   59.5039  159.4474   -0.5456 H   0  0  0  0  0  0  0  0  0  0  0  0
   60.0614  158.8059   -2.1106 H   0  0  0  0  0  0  0  0  0  0  0  0
   59.8246  160.5416   -1.9138 H   0  0  0  0  0  0  0  0  0  0  0  0
   54.5003  155.1692   -2.7354 H   0  0  0  0  0  0  0  0  0  0  0  0
   53.8325  156.7908   -2.4453 H   0  0  0  0  0  0  0  0  0  0  0  0
   54.9807  156.0832   -1.2886 H   0  0  0  0  0  0  0  0  0  0  0  0
   54.7578  156.2686   -5.4795 H   0  0  0  0  0  0  0  0  0  0  0  0
   56.0249  157.4756   -5.6919 H   0  0  0  0  0  0  0  0  0  0  0  0
   57.5177  156.1309   -4.1579 H   0  0  0  0  0  0  0  0  0  0  0  0
   56.2311  154.9339   -3.9939 H   0  0  0  0  0  0  0  0  0  0  0  0
   54.3781  158.1475   -5.2156 H   0  0  0  0  0  0  0  0  0  0  0  0
   52.7089  158.3241   -4.8141 H   0  0  0  0  0  0  0  0  0  0  0  0
   51.2629  159.4065   -2.1708 H   0  0  0  0  0  0  0  0  0  0  0  0
  1  2  2  0  0  0  0
  1  3  1  0  0  0  0
  2  4  1  0  0  0  0
  3  5  2  0  0  0  0
  3  6  1  0  0  0  0
  4  7  1  0  0  0  0
  4 12  2  0  0  0  0
  5 12  1  0  0  0  0
  5 15  1  0  0  0  0
  6 13  2  0  0  0  0
  6 14  1  0  0  0  0
  8 15  1  0  0  0  0
  9 10  1  0  0  0  0
  9 11  1  0  0  0  0
 10 15  1  0  0  0  0
 11 17  1  0  0  0  0
 11 18  1  0  0  0  0
 11 19  1  0  0  0  0
 13 16  1  0  0  0  0
  1 20  1  0  0  0  0
  2 21  1  0  0  0  0
  7 22  1  0  0  0  0
  7 23  1  0  0  0  0
  7 24  1  0  0  0  0
  8 25  1  0  0  0  0
  8 26  1  0  0  0  0
  8 27  1  0  0  0  0
  9 28  1  0  0  0  0
  9 29  1  0  0  0  0
 10 30  1  0  0  0  0
 10 31  1  0  0  0  0
 14 32  1  0  0  0  0
 14 33  1  0  0  0  0
 16 34  1  0  0  0  0
M  END
> <FRED Chemgauss4 score>
-0.240638

$$$$
C91396858	P143009131
  -OEChem-05122015083D

 50 51  0     1  0  0  0  0  0999 V2000
   54.2433  155.9753   -1.9315 C   0  0  0  0  0  0  0  0  0  0  0  0
   54.7061  162.1705   -4.0776 C   0  0  0  0  0  0  0  0  0  0  0  0
   54.4040  155.0171   -3.1078 C   0  0  0  0  0  0  0  0  0  0  0  0
   55.0006  161.2408   -5.2571 C   0  0  0  0  0  0  0  0  0  0  0  0
   54.6214  160.1715   -2.5182 C   0  0  0  0  0  0  0  0  0  0  0  0
   54.8886  157.3300   -2.2262 C   0  0  0  0  0  0  0  0  0  0  0  0
   54.5664  157.0382   -4.6138 C   0  0  0  0  0  0  0  0  0  0  0  0
   55.1587  161.5975   -2.7266 C   0  0  1  0  0  0  0  0  0  0  0  0
   54.9359  159.2371   -3.6968 C   0  0  2  0  0  0  0  0  0  0  0  0
   53.8979  155.6723   -4.3963 C   0  0  1  0  0  0  0  0  0  0  0  0
   54.4790  159.8178   -5.0450 C   0  0  1  0  0  0  0  0  0  0  0  0
   56.6815  161.6564   -2.5728 C   0  0  0  0  0  0  0  0  0  0  0  0
   53.6671  155.4311   -6.7756 C   0  0  0  0  0  0  0  0  0  0  0  0
   53.5158  153.5014   -5.3522 C   0  0  0  0  0  0  0  0  0  0  0  0
   52.4575  160.3689   -6.4046 C   0  0  0  0  0  0  0  0  0  0  0  0
   54.3449  157.9205   -3.4570 N   0  0  2  0  0  0  0  0  0  0  0  0
   54.1509  154.8044   -5.5461 N   0  0  0  0  0  0  0  0  0  0  0  0
   52.9873  159.8358   -5.1249 N   0  3  0  0  0  0  0  0  0  0  0  0
   53.1764  156.1143   -1.7155 H   0  0  0  0  0  0  0  0  0  0  0  0
   54.6961  155.5372   -1.0348 H   0  0  0  0  0  0  0  0  0  0  0  0
   55.1831  163.1422   -4.2542 H   0  0  0  0  0  0  0  0  0  0  0  0
   53.6276  162.3670   -4.0345 H   0  0  0  0  0  0  0  0  0  0  0  0
   55.4636  154.7466   -3.2073 H   0  0  0  0  0  0  0  0  0  0  0  0
   53.8542  154.0898   -2.9065 H   0  0  0  0  0  0  0  0  0  0  0  0
   54.5734  161.6705   -6.1715 H   0  0  0  0  0  0  0  0  0  0  0  0
   56.0848  161.1990   -5.4184 H   0  0  0  0  0  0  0  0  0  0  0  0
   55.0351  159.7560   -1.5900 H   0  0  0  0  0  0  0  0  0  0  0  0
   53.5352  160.2271   -2.3659 H   0  0  0  0  0  0  0  0  0  0  0  0
   54.6899  157.9948   -1.3765 H   0  0  0  0  0  0  0  0  0  0  0  0
   55.9780  157.2110   -2.2979 H   0  0  0  0  0  0  0  0  0  0  0  0
   55.6424  156.9108   -4.7993 H   0  0  0  0  0  0  0  0  0  0  0  0
   54.1359  157.5014   -5.5113 H   0  0  0  0  0  0  0  0  0  0  0  0
   54.7373  162.2326   -1.9362 H   0  0  0  0  0  0  0  0  0  0  0  0
   56.0228  159.0958   -3.7447 H   0  0  0  0  0  0  0  0  0  0  0  0
   52.8129  155.8188   -4.3189 H   0  0  0  0  0  0  0  0  0  0  0  0
   54.8058  159.1755   -5.8710 H   0  0  0  0  0  0  0  0  0  0  0  0
   57.1494  161.0402   -3.3367 H   0  0  0  0  0  0  0  0  0  0  0  0
   56.9633  161.2870   -1.5898 H   0  0  0  0  0  0  0  0  0  0  0  0
   57.0196  162.6841   -2.6821 H   0  0  0  0  0  0  0  0  0  0  0  0
   53.8590  154.7780   -7.6309 H   0  0  0  0  0  0  0  0  0  0  0  0
   54.1766  156.3845   -6.9396 H   0  0  0  0  0  0  0  0  0  0  0  0
   52.5916  155.6156   -6.7080 H   0  0  0  0  0  0  0  0  0  0  0  0
   53.7083  152.8576   -6.2144 H   0  0  0  0  0  0  0  0  0  0  0  0
   52.4351  153.6211   -5.2368 H   0  0  0  0  0  0  0  0  0  0  0  0
   53.9125  153.0172   -4.4558 H   0  0  0  0  0  0  0  0  0  0  0  0
   52.8448  161.3816   -6.5303 H   0  0  0  0  0  0  0  0  0  0  0  0
   52.8022  159.7143   -7.2074 H   0  0  0  0  0  0  0  0  0  0  0  0
   51.3678  160.3707   -6.3402 H   0  0  0  0  0  0  0  0  0  0  0  0
   52.6375  158.8810   -4.9811 H   0  0  0  0  0  0  0  0  0  0  0  0
   52.6217  160.3940   -4.3441 H   0  0  0  0  0  0  0  0  0  0  0  0
  1  3  1  0  0  0  0
  1  6  1  0  0  0  0
  2  4  1  0  0  0  0
  2  8  1  0  0  0  0
  3 10  1  0  0  0  0
  4 11  1  0  0  0  0
  5  8  1  0  0  0  0
  5  9  1  0  0  0  0
  6 16  1  0  0  0  0
  7 10  1  0  0  0  0
  7 16  1  0  0  0  0
  8 12  1  0  0  0  0
  9 11  1  0  0  0  0
  9 16  1  0  0  0  0
 10 17  1  0  0  0  0
 11 18  1  0  0  0  0
 13 17  1  0  0  0  0
 14 17  1  0  0  0  0
 15 18  1  0  0  0  0
  1 19  1  0  0  0  0
  1 20  1  0  0  0  0
  2 21  1  0  0  0  0
  2 22  1  0  0  0  0
  3 23  1  0  0  0  0
  3 24  1  0  0  0  0
  4 25  1  0  0  0  0
  4 26  1  0  0  0  0
  5 27  1  0  0  0  0
  5 28  1  0  0  0  0
  6 29  1  0  0  0  0
  6 30  1  0  0  0  0
  7 31  1  0  0  0  0
  7 32  1  0  0  0  0
  8 33  1  0  0  0  0
  9 34  1  0  0  0  0
 10 35  1  0  0  0  0
 11 36  1  0  0  0  0
 12 37  1  0  0  0  0
 12 38  1  0  0  0  0
 12 39  1  0  0  0  0
 13 40  1  0  0  0  0
 13 41  1  0  0  0  0
 13 42  1  0  0  0  0
 14 43  1  0  0  0  0
 14 44  1  0  0  0  0
 14 45  1  0  0  0  0
 15 46  1  0  0  0  0
 15 47  1  0  0  0  0
 15 48  1  0  0  0  0
 18 49  1  0  0  0  0
 18 50  1  0  0  0  0
M  CHG  1  18   1
M  END
> <FRED Chemgauss4 score>
1.553520

$$$$
